@<TRIPOS>MOLECULE
*****
 39 43 0 0 0
SMALL
GASTEIGER

@<TRIPOS>ATOM
      1 C          63.5250   88.4131   12.7165 C.3     1  UNL1        0.0996
      2 C          64.6341   88.9509   13.5714 C.3     1  UNL1        0.1158
      3 N          64.6906   90.4371   13.3762 N.3     1  UNL1       -0.1533
      4 C          63.6165   90.8177   12.4008 C.3     1  UNL1        0.1066
      5 C          62.8962   89.5667   11.9931 C.3     1  UNL1        0.1134
      6 C          63.7296   85.9479   13.5110 C.2     1  UNL1        0.2636
      7 O          64.7509   86.3608   14.5291 O.2     1  UNL1       -0.2685
      8 N          63.1167   86.9741   12.6048 N.am    1  UNL1       -0.2993
      9 H          62.4463   86.7031   11.9366 H       1  UNL1        0.1498
     10 C          62.4492   78.4209   11.6868 C.3     1  UNL1        0.0267
     11 C          62.3941   79.7346   12.4087 C.2     1  UNL1       -0.0394
     12 C          61.5763   79.8697   13.6588 C.2     1  UNL1       -0.0066
     13 C          61.5211   81.1834   14.3807 C.2     1  UNL1        0.0182
     14 C          62.2837   82.3620   13.8524 C.2     1  UNL1        0.0778
     15 N          62.4195   83.7723   14.3450 N.2     1  UNL1       -0.2411
     16 C          63.3212   84.5089   13.3992 C.2     1  UNL1        0.1341
     17 C          63.7427   83.5539   12.3221 C.2     1  UNL1        0.0213
     18 C          63.1015   82.2270   12.6022 C.2     1  UNL1        0.0012
     19 C          63.1567   80.9133   11.8804 C.3     1  UNL1        0.0499
     20 C          61.7485   89.4840   11.0308 C.2     1  UNL1        0.2251
     21 O          60.5696   90.3979   11.1893 O.2     1  UNL1       -0.2750
     22 N          61.7796   88.4875    9.9101 N.am    1  UNL1       -0.3045
     23 H          62.5533   87.8877    9.8060 H       1  UNL1        0.1494
     24 C          60.6319   88.4049    8.9479 C.3     1  UNL1        0.0873
     25 C          60.3346   89.5568    8.0343 C.3     1  UNL1        0.0224
     26 C          59.1868   89.4741    7.0721 C.3     1  UNL1        0.0188
     27 C          58.3364   88.2394    7.0236 C.3     1  UNL1        0.0687
     28 N          58.6336   87.0874    7.9372 N.3     1  UNL1       -0.2961
     29 C          59.7814   87.1701    8.8993 C.3     1  UNL1        0.0883
     30 H          58.8057   86.2768    7.3425 H       1  UNL1        0.1233
     31 S          65.6523   91.3776   14.0400 S.O2    1  UNL1        0.0633
     32 O          64.9976   91.1131   15.3634 O.2     1  UNL1       -0.1528
     33 O          66.3070   91.6421   12.7166 O.2     1  UNL1       -0.1528
     34 C          66.6141   92.3181   14.7038 C.ar    1  UNL1        0.1222
     35 C          67.5584   91.8087   15.7519 C.ar    1  UNL1        0.0199
     36 C          68.5202   92.7492   16.4157 C.ar    1  UNL1        0.0014
     37 C          68.5375   94.1990   16.0313 C.ar    1  UNL1        0.0001
     38 C          67.5932   94.7083   14.9831 C.ar    1  UNL1        0.0014
     39 C          66.6314   93.7679   14.3194 C.ar    1  UNL1        0.0199
@<TRIPOS>BOND
     1    10    11    1
     2    11    12    2
     3    12    13    1
     4    13    14    2
     5    14    15    1
     6    15    16    2
     7    16     6    1
     8     6     7    2
     9     6     8   am
    10     1     8    1
    11     1     2    1
    12     2     3    1
    13     3    31    1
    14    31    32    2
    15    31    33    2
    16    31    34    1
    17    34    35   ar
    18    35    36   ar
    19    36    37   ar
    20    37    38   ar
    21    38    39   ar
    22     3     4    1
    23     4     5    1
    24     5    20    1
    25    20    21    2
    26    20    22   am
    27    24    22    1
    28    24    25    1
    29    25    26    1
    30    26    27    1
    31    27    28    1
    32    28    29    1
    33    16    17    1
    34    17    18    2
    35    18    19    1
    36    19    11    1
    37    18    14    1
    38     5     1    1
    39    29    24    1
    40    39    34   ar
    41     8     9    1
    42    22    23    1
    43    28    30    1
@<TRIPOS>MOLECULE
*****
 39 43 0 0 0
SMALL
GASTEIGER

@<TRIPOS>ATOM
      1 C          62.0501   87.7610   10.6091 C.3     1  UNL1        0.0996
      2 C          61.7786   86.2881   10.6932 C.3     1  UNL1        0.1158
      3 N          62.4475   85.7635   11.9291 N.3     1  UNL1       -0.1533
      4 C          63.1323   86.9120   12.6087 C.3     1  UNL1        0.1066
      5 C          62.8867   88.1465   11.7928 C.3     1  UNL1        0.1134
      6 C          60.5431   88.2164    8.5424 C.2     1  UNL1        0.2636
      7 O          59.9975   86.8221    8.6329 O.2     1  UNL1       -0.2685
      8 N          61.5694   88.6858    9.5304 N.am    1  UNL1       -0.2993
      9 H          61.9275   89.6010    9.4710 H       1  UNL1        0.1498
     10 C          59.4938   93.2461    2.6073 C.3     1  UNL1        0.0267
     11 C          59.2000   92.3059    3.7385 C.2     1  UNL1       -0.0394
     12 C          57.7798   92.0274    4.1327 C.2     1  UNL1       -0.0066
     13 C          57.4860   91.0871    5.2639 C.2     1  UNL1        0.0182
     14 C          58.6124   90.4254    6.0009 C.2     1  UNL1        0.0778
     15 N          58.6308   89.4597    7.1485 N.2     1  UNL1       -0.2411
     16 C          60.0624   89.1414    7.4637 C.2     1  UNL1        0.1341
     17 C          60.9288   89.9103    6.5108 C.2     1  UNL1        0.0213
     18 C          60.0326   90.7039    5.6068 C.2     1  UNL1        0.0012
     19 C          60.3264   91.6441    4.4756 C.3     1  UNL1        0.0499
     20 C          63.3895   89.5246   12.1058 C.2     1  UNL1        0.2251
     21 O          62.7389   90.7211   11.4772 O.2     1  UNL1       -0.2750
     22 N          64.5429   89.7064   13.0475 N.am    1  UNL1       -0.3045
     23 H          64.9699   88.9211   13.4602 H       1  UNL1        0.1494
     24 C          65.0456   91.0844   13.3605 C.3     1  UNL1        0.0873
     25 C          65.4276   92.0143   12.2472 C.3     1  UNL1        0.0224
     26 C          65.9303   93.3925   12.5603 C.3     1  UNL1        0.0188
     27 C          66.0511   93.8407   13.9866 C.3     1  UNL1        0.0687
     28 N          65.6691   92.9108   15.1000 N.3     1  UNL1       -0.2961
     29 C          65.1664   91.5327   14.7869 C.3     1  UNL1        0.0883
     30 H          64.9364   93.3772   15.6348 H       1  UNL1        0.1233
     31 S          62.4338   84.3401   12.4023 S.O2    1  UNL1        0.0633
     32 O          62.5603   83.8675   10.9843 O.2     1  UNL1       -0.1528
     33 O          62.3073   84.8127   13.8203 O.2     1  UNL1       -0.1528
     34 C          62.4202   82.9167   12.8755 C.ar    1  UNL1        0.1222
     35 C          62.8443   81.8148   11.9504 C.ar    1  UNL1        0.0199
     36 C          62.8307   80.3915   12.4236 C.ar    1  UNL1        0.0014
     37 C          62.3929   80.0701   13.8219 C.ar    1  UNL1        0.0001
     38 C          61.9688   81.1720   14.7469 C.ar    1  UNL1        0.0014
     39 C          61.9824   82.5954   14.2737 C.ar    1  UNL1        0.0199
@<TRIPOS>BOND
     1    10    11    1
     2    11    12    2
     3    12    13    1
     4    13    14    2
     5    14    15    1
     6    15    16    2
     7    16     6    1
     8     6     7    2
     9     6     8   am
    10     1     8    1
    11     1     2    1
    12     2     3    1
    13     3    31    1
    14    31    32    2
    15    31    33    2
    16    31    34    1
    17    34    35   ar
    18    35    36   ar
    19    36    37   ar
    20    37    38   ar
    21    38    39   ar
    22     3     4    1
    23     4     5    1
    24     5    20    1
    25    20    21    2
    26    20    22   am
    27    24    22    1
    28    24    25    1
    29    25    26    1
    30    26    27    1
    31    27    28    1
    32    28    29    1
    33    16    17    1
    34    17    18    2
    35    18    19    1
    36    19    11    1
    37    18    14    1
    38     5     1    1
    39    29    24    1
    40    39    34   ar
    41     8     9    1
    42    22    23    1
    43    28    30    1
@<TRIPOS>MOLECULE
*****
 39 43 0 0 0
SMALL
GASTEIGER

@<TRIPOS>ATOM
      1 C          62.6035   88.3427   10.5191 C.3     1  UNL1        0.0996
      2 C          63.1082   87.1651   11.2993 C.3     1  UNL1        0.1158
      3 N          62.0892   86.0692   11.1952 N.3     1  UNL1       -0.1533
      4 C          60.9549   86.5696   10.3509 C.3     1  UNL1        0.1066
      5 C          61.2728   87.9747    9.9330 C.3     1  UNL1        0.1134
      6 C          63.8867   90.3530   11.5498 C.2     1  UNL1        0.2636
      7 O          63.7642   89.7337   12.9104 O.2     1  UNL1       -0.2685
      8 N          63.3063   89.6576   10.3541 N.am    1  UNL1       -0.2993
      9 H          63.3867   90.0641    9.4611 H       1  UNL1        0.1498
     10 C          67.6213   96.8559    9.2285 C.3     1  UNL1        0.0267
     11 C          66.9505   95.8430   10.1082 C.2     1  UNL1       -0.0394
     12 C          66.8261   96.0943   11.5817 C.2     1  UNL1       -0.0066
     13 C          66.1553   95.0814   12.4614 C.2     1  UNL1        0.0182
     14 C          65.6089   93.8170   11.8676 C.2     1  UNL1        0.0778
     15 N          64.9020   92.6442   12.4798 N.2     1  UNL1       -0.2411
     16 C          64.5895   91.6679   11.3847 C.2     1  UNL1        0.1341
     17 C          65.1032   92.2374   10.0956 C.2     1  UNL1        0.0213
     18 C          65.7332   93.5656   10.3941 C.2     1  UNL1        0.0012
     19 C          66.4040   94.5786    9.5144 C.3     1  UNL1        0.0499
     20 C          60.4112   88.8568    9.0790 C.2     1  UNL1        0.2251
     21 O          59.6779   90.0116    9.6944 O.2     1  UNL1       -0.2750
     22 N          60.2828   88.5842    7.6095 N.am    1  UNL1       -0.3045
     23 H          60.7640   87.8263    7.2056 H       1  UNL1        0.1494
     24 C          59.4211   89.4664    6.7556 C.3     1  UNL1        0.0873
     25 C          60.0513   90.5018    5.8719 C.3     1  UNL1        0.0224
     26 C          59.1896   91.3840    5.0180 C.3     1  UNL1        0.0188
     27 C          57.6977   91.2307    5.0477 C.3     1  UNL1        0.0687
     28 N          57.0675   90.1953    5.9314 N.3     1  UNL1       -0.2961
     29 C          57.9292   89.3131    6.7853 C.3     1  UNL1        0.0883
     30 H          56.5265   89.5797    5.3241 H       1  UNL1        0.1233
     31 S          62.1874   84.7114   11.8250 S.O2    1  UNL1        0.0633
     32 O          62.3591   84.0946   10.4685 O.2     1  UNL1       -0.1528
     33 O          62.0157   85.3282   13.1816 O.2     1  UNL1       -0.1528
     34 C          62.2855   83.3535   12.4549 C.ar    1  UNL1        0.1222
     35 C          61.9916   83.1814   13.9156 C.ar    1  UNL1        0.0199
     36 C          62.0898   81.8235   14.5454 C.ar    1  UNL1        0.0014
     37 C          62.4819   80.6379   13.7144 C.ar    1  UNL1        0.0001
     38 C          62.7758   80.8101   12.2537 C.ar    1  UNL1        0.0014
     39 C          62.6776   82.1679   11.6239 C.ar    1  UNL1        0.0199
@<TRIPOS>BOND
     1    10    11    1
     2    11    12    2
     3    12    13    1
     4    13    14    2
     5    14    15    1
     6    15    16    2
     7    16     6    1
     8     6     7    2
     9     6     8   am
    10     1     8    1
    11     1     2    1
    12     2     3    1
    13     3    31    1
    14    31    32    2
    15    31    33    2
    16    31    34    1
    17    34    35   ar
    18    35    36   ar
    19    36    37   ar
    20    37    38   ar
    21    38    39   ar
    22     3     4    1
    23     4     5    1
    24     5    20    1
    25    20    21    2
    26    20    22   am
    27    24    22    1
    28    24    25    1
    29    25    26    1
    30    26    27    1
    31    27    28    1
    32    28    29    1
    33    16    17    1
    34    17    18    2
    35    18    19    1
    36    19    11    1
    37    18    14    1
    38     5     1    1
    39    29    24    1
    40    39    34   ar
    41     8     9    1
    42    22    23    1
    43    28    30    1
@<TRIPOS>MOLECULE
*****
 39 43 0 0 0
SMALL
GASTEIGER

@<TRIPOS>ATOM
      1 C          62.2499   89.1563   10.7023 C.3     1  UNL1        0.0996
      2 C          61.4788   90.0401    9.7673 C.3     1  UNL1        0.1158
      3 N          60.6463   89.1621    8.8805 N.3     1  UNL1       -0.1533
      4 C          60.9030   87.7358    9.2676 C.3     1  UNL1        0.1066
      5 C          61.8941   87.7323   10.3935 C.3     1  UNL1        0.1134
      6 C          63.8289   90.9787   11.6695 C.2     1  UNL1        0.2636
      7 O          63.4906   91.8817   10.5206 O.2     1  UNL1       -0.2685
      8 N          63.2086   89.6160   11.7603 N.am    1  UNL1       -0.2993
      9 H          63.4307   89.0233   12.5144 H       1  UNL1        0.1498
     10 C          69.8185   93.5167   16.0636 C.3     1  UNL1        0.0267
     11 C          68.4558   93.0302   15.6680 C.2     1  UNL1       -0.0394
     12 C          67.3909   92.8535   16.7095 C.2     1  UNL1       -0.0066
     13 C          66.0283   92.3671   16.3139 C.2     1  UNL1        0.0182
     14 C          65.7305   92.0574   14.8768 C.2     1  UNL1        0.0778
     15 N          64.4897   91.5656   14.1923 N.2     1  UNL1       -0.2411
     16 C          64.7877   91.4384   12.7277 C.2     1  UNL1        0.1341
     17 C          66.2126   91.8515   12.5070 C.2     1  UNL1        0.0213
     18 C          66.7953   92.2341   13.8353 C.2     1  UNL1        0.0012
     19 C          68.1580   92.7205   14.2309 C.3     1  UNL1        0.0499
     20 C          62.4346   86.5179   11.0885 C.2     1  UNL1        0.2251
     21 O          62.8737   86.6062   12.5201 O.2     1  UNL1       -0.2750
     22 N          62.5358   85.2149   10.3521 N.am    1  UNL1       -0.3045
     23 H          62.2476   85.1569    9.4125 H       1  UNL1        0.1494
     24 C          63.0762   84.0006   11.0472 C.3     1  UNL1        0.0873
     25 C          62.2738   83.3340   12.1250 C.3     1  UNL1        0.0224
     26 C          62.8143   82.1196   12.8201 C.3     1  UNL1        0.0188
     27 C          64.1572   81.5718   12.4373 C.3     1  UNL1        0.0687
     28 N          64.9597   82.2384   11.3594 N.3     1  UNL1       -0.2961
     29 C          64.4192   83.4528   10.6643 C.3     1  UNL1        0.0883
     30 H          65.1255   81.5359   10.6387 H       1  UNL1        0.1233
     31 S          59.7198   89.6285    7.7970 S.O2    1  UNL1        0.0633
     32 O          59.3420   90.8164    8.6314 O.2     1  UNL1       -0.1528
     33 O          60.0975   88.4406    6.9626 O.2     1  UNL1       -0.1528
     34 C          58.7932   90.0950    6.7135 C.ar    1  UNL1        0.1222
     35 C          59.2872   91.0423    5.6607 C.ar    1  UNL1        0.0199
     36 C          58.3607   91.5088    4.5772 C.ar    1  UNL1        0.0014
     37 C          56.9403   91.0279    4.5465 C.ar    1  UNL1        0.0001
     38 C          56.4463   90.0805    5.5993 C.ar    1  UNL1        0.0014
     39 C          57.3728   89.6141    6.6828 C.ar    1  UNL1        0.0199
@<TRIPOS>BOND
     1    10    11    1
     2    11    12    2
     3    12    13    1
     4    13    14    2
     5    14    15    1
     6    15    16    2
     7    16     6    1
     8     6     7    2
     9     6     8   am
    10     1     8    1
    11     1     2    1
    12     2     3    1
    13     3    31    1
    14    31    32    2
    15    31    33    2
    16    31    34    1
    17    34    35   ar
    18    35    36   ar
    19    36    37   ar
    20    37    38   ar
    21    38    39   ar
    22     3     4    1
    23     4     5    1
    24     5    20    1
    25    20    21    2
    26    20    22   am
    27    24    22    1
    28    24    25    1
    29    25    26    1
    30    26    27    1
    31    27    28    1
    32    28    29    1
    33    16    17    1
    34    17    18    2
    35    18    19    1
    36    19    11    1
    37    18    14    1
    38     5     1    1
    39    29    24    1
    40    39    34   ar
    41     8     9    1
    42    22    23    1
    43    28    30    1
