@<TRIPOS>MOLECULE
*****
 33 37 0 0 0
SMALL
GASTEIGER

@<TRIPOS>ATOM
      1 O          62.1496   89.5259   10.0246 O.2     1  UNL1       -0.4710
      2 C          63.6086   83.0292   13.8957 C.3     1  UNL1        0.0458
      3 C          64.1109   83.9958   14.9269 C.3     1  UNL1        0.0110
      4 C          63.9285   85.3840   14.3889 C.3     1  UNL1        0.0280
      5 C          63.3135   85.2754   13.0250 C.2     1  UNL1       -0.0074
      6 C          63.1159   83.8201   12.7202 C.2     1  UNL1        0.0547
      7 N          62.5009   83.7115   11.3564 N.2     1  UNL1       -0.2540
      8 C          62.3185   85.0997   10.8182 C.2     1  UNL1        0.0628
      9 C          61.7600   85.6085    9.5224 C.3     1  UNL1        0.0749
     10 C          61.7037   87.0839    9.2579 C.2     1  UNL1        0.0171
     11 C          62.2059   88.0505   10.2892 C.2     1  UNL1        0.1352
     12 C          62.7644   87.5417   11.5850 C.2     1  UNL1        0.0375
     13 C          62.8207   86.0663   11.8495 C.2     1  UNL1        0.0140
     14 C          63.6006   81.5342   14.0183 C.3     1  UNL1        0.0476
     15 O          62.4750   79.6443   12.6359 O.co2   1  UNL1       -0.5492
     16 C          62.3757   80.7571   13.6367 C.2     1  UNL1        0.0507
     17 O          61.0513   81.0928   14.2559 O.co2   1  UNL1       -0.5492
     18 C          61.9990   90.4874   11.1660 C.3     1  UNL1        0.2320
     19 C          63.2100   90.9540   11.9183 C.ar    1  UNL1        0.0211
     20 C          63.4294   90.5118   13.3347 C.ar    1  UNL1       -0.0010
     21 C          64.6403   90.9785   14.0870 C.ar    1  UNL1       -0.0045
     22 C          65.6317   91.8874   13.4228 C.ar    1  UNL1       -0.0186
     23 C          65.4122   92.3295   12.0064 C.ar    1  UNL1        0.0673
     24 C          64.2014   91.8629   11.2542 C.ar    1  UNL1        0.0028
     25 C          66.8427   92.3540   14.1751 C.3     1  UNL1        0.0223
     26 C          68.2323   91.8067   14.0358 C.3     1  UNL1        0.0043
     27 C          69.1251   92.5643   14.9734 C.3     1  UNL1        0.0003
     28 C          68.2871   93.5798   15.6922 C.3     1  UNL1        0.0003
     29 C          66.8766   93.4498   15.1988 C.3     1  UNL1        0.0043
     30 C          66.4037   93.2384   11.3423 C.3     1  UNL1        0.4183
     31 F          67.3951   94.1472   10.6781 F       1  UNL1       -0.1659
     32 F          67.0503   92.0541   10.6869 F       1  UNL1       -0.1659
     33 F          65.7570   94.4226   11.9976 F       1  UNL1       -0.1659
@<TRIPOS>UNITY_ATOM_ATTR
15 1
charge -1
@<TRIPOS>BOND
     1    15    16   ar
     2    16    17   ar
     3    16    14    1
     4     2    14    1
     5     2     3    1
     6     3     4    1
     7     4     5    1
     8     5     6    2
     9     6     7    1
    10     7     8    2
    11     8     9    1
    12     9    10    1
    13    10    11    2
    14    11     1    1
    15     1    18    1
    16    18    19    1
    17    19    20   ar
    18    20    21   ar
    19    21    22   ar
    20    22    25    1
    21    25    26    1
    22    26    27    1
    23    27    28    1
    24    28    29    1
    25    22    23   ar
    26    23    30    1
    27    30    31    1
    28    30    32    1
    29    30    33    1
    30    23    24   ar
    31    11    12    1
    32    12    13    2
    33     6     2    1
    34    13     8    1
    35    13     5    1
    36    24    19   ar
    37    29    25    1
@<TRIPOS>MOLECULE
*****
 33 37 0 0 0
SMALL
GASTEIGER

@<TRIPOS>ATOM
      1 O          61.4018   89.9002   10.2672 O.2     1  UNL1       -0.4710
      2 C          63.7851   83.2012   13.2277 C.3     1  UNL1        0.0458
      3 C          64.2971   84.0967   14.3167 C.3     1  UNL1        0.0110
      4 C          63.9437   85.5100   13.9593 C.3     1  UNL1        0.0280
      5 C          63.2132   85.4879   12.6492 C.2     1  UNL1       -0.0074
      6 C          63.1152   84.0610   12.1972 C.2     1  UNL1        0.0547
      7 N          62.3848   84.0390   10.8872 N.2     1  UNL1       -0.2540
      8 C          62.0314   85.4522   10.5297 C.2     1  UNL1        0.0628
      9 C          61.3095   86.0394    9.3532 C.3     1  UNL1        0.0749
     10 C          61.0997   87.5220    9.2658 C.2     1  UNL1        0.0171
     11 C          61.6117   88.4175   10.3548 C.2     1  UNL1        0.1352
     12 C          62.3335   87.8304   11.5312 C.2     1  UNL1        0.0375
     13 C          62.5434   86.3477   11.6187 C.2     1  UNL1        0.0140
     14 C          63.9193   81.7080   13.1780 C.3     1  UNL1        0.0476
     15 O          61.6306   81.1634   14.2803 O.co2   1  UNL1       -0.5492
     16 C          62.6989   80.8417   13.2778 C.2     1  UNL1        0.0507
     17 O          62.5468   79.6534   12.3750 O.co2   1  UNL1       -0.5492
     18 C          62.5535   90.8025    9.9365 C.3     1  UNL1        0.2320
     19 C          63.5471   91.1703   10.9984 C.ar    1  UNL1        0.0211
     20 C          64.6903   92.0847   10.6715 C.ar    1  UNL1       -0.0010
     21 C          65.6838   92.4525   11.7333 C.ar    1  UNL1       -0.0045
     22 C          65.5341   91.9059   13.1222 C.ar    1  UNL1       -0.0186
     23 C          64.3909   90.9915   13.4491 C.ar    1  UNL1        0.0673
     24 C          63.3974   90.6237   12.3872 C.ar    1  UNL1        0.0028
     25 C          66.5277   92.2737   14.1841 C.3     1  UNL1        0.0223
     26 C          66.7124   93.6356   14.7850 C.3     1  UNL1        0.0043
     27 C          67.8098   93.5478   15.8037 C.3     1  UNL1        0.0003
     28 C          68.3035   92.1316   15.8324 C.3     1  UNL1        0.0003
     29 C          67.5111   91.3442   14.8314 C.3     1  UNL1        0.0043
     30 C          64.2412   90.4449   14.8379 C.3     1  UNL1        0.4183
     31 F          64.0916   89.8982   16.2267 F       1  UNL1       -0.1659
     32 F          63.6243   91.7385   15.2806 F       1  UNL1       -0.1659
     33 F          64.8581   89.1512   14.3953 F       1  UNL1       -0.1659
@<TRIPOS>UNITY_ATOM_ATTR
15 1
charge -1
@<TRIPOS>BOND
     1    15    16   ar
     2    16    17   ar
     3    16    14    1
     4     2    14    1
     5     2     3    1
     6     3     4    1
     7     4     5    1
     8     5     6    2
     9     6     7    1
    10     7     8    2
    11     8     9    1
    12     9    10    1
    13    10    11    2
    14    11     1    1
    15     1    18    1
    16    18    19    1
    17    19    20   ar
    18    20    21   ar
    19    21    22   ar
    20    22    25    1
    21    25    26    1
    22    26    27    1
    23    27    28    1
    24    28    29    1
    25    22    23   ar
    26    23    30    1
    27    30    31    1
    28    30    32    1
    29    30    33    1
    30    23    24   ar
    31    11    12    1
    32    12    13    2
    33     6     2    1
    34    13     8    1
    35    13     5    1
    36    24    19   ar
    37    29    25    1
@<TRIPOS>MOLECULE
*****
 33 37 0 0 0
SMALL
GASTEIGER

@<TRIPOS>ATOM
      1 O          58.9212   89.3495    6.1218 O.2     1  UNL1       -0.4710
      2 C          63.3559   89.6799   12.4104 C.3     1  UNL1        0.0458
      3 C          63.7044   91.0256   11.8467 C.3     1  UNL1        0.0110
      4 C          62.9381   91.2059   10.5698 C.3     1  UNL1        0.0280
      5 C          62.1161   89.9716   10.3444 C.2     1  UNL1       -0.0074
      6 C          62.3743   89.0285   11.4819 C.2     1  UNL1        0.0547
      7 N          61.5522   87.7943   11.2564 N.2     1  UNL1       -0.2540
      8 C          60.7860   87.9745    9.9796 C.2     1  UNL1        0.0628
      9 C          59.8159   87.0872    9.2574 C.3     1  UNL1        0.0749
     10 C          59.1944   87.5455    7.9715 C.2     1  UNL1        0.0171
     11 C          59.5428   88.8912    7.4078 C.2     1  UNL1        0.1352
     12 C          60.5129   89.7785    8.1300 C.2     1  UNL1        0.0375
     13 C          61.1344   89.3202    9.4159 C.2     1  UNL1        0.0140
     14 C          63.8945   89.0893   13.6797 C.3     1  UNL1        0.0476
     15 O          63.1123   88.7585   16.1350 O.co2   1  UNL1       -0.5492
     16 C          63.4943   89.6674   15.0047 C.2     1  UNL1        0.0507
     17 O          63.4760   91.1547   15.1993 O.co2   1  UNL1       -0.5492
     18 C          58.8815   90.8111    5.7871 C.3     1  UNL1        0.2320
     19 C          59.8131   91.3691    4.7522 C.ar    1  UNL1        0.0211
     20 C          61.2401   90.9096    4.7019 C.ar    1  UNL1       -0.0010
     21 C          62.1716   91.4676    3.6670 C.ar    1  UNL1       -0.0045
     22 C          61.6761   92.4851    2.6825 C.ar    1  UNL1       -0.0186
     23 C          60.2491   92.9446    2.7329 C.ar    1  UNL1        0.0673
     24 C          59.3176   92.3866    3.7677 C.ar    1  UNL1        0.0028
     25 C          62.6077   93.0431    1.6477 C.3     1  UNL1        0.0223
     26 C          62.3735   93.0565    0.1661 C.3     1  UNL1        0.0043
     27 C          63.5580   93.7073   -0.4846 C.3     1  UNL1        0.0003
     28 C          64.5243   94.0961    0.5949 C.3     1  UNL1        0.0003
     29 C          63.9369   93.6856    1.9127 C.3     1  UNL1        0.0043
     30 C          59.7537   93.9621    1.7484 C.3     1  UNL1        0.4183
     31 F          59.2582   94.9795    0.7639 F       1  UNL1       -0.1659
     32 F          59.1350   92.8683    0.9293 F       1  UNL1       -0.1659
     33 F          60.3723   95.0558    2.5675 F       1  UNL1       -0.1659
@<TRIPOS>UNITY_ATOM_ATTR
15 1
charge -1
@<TRIPOS>BOND
     1    15    16   ar
     2    16    17   ar
     3    16    14    1
     4     2    14    1
     5     2     3    1
     6     3     4    1
     7     4     5    1
     8     5     6    2
     9     6     7    1
    10     7     8    2
    11     8     9    1
    12     9    10    1
    13    10    11    2
    14    11     1    1
    15     1    18    1
    16    18    19    1
    17    19    20   ar
    18    20    21   ar
    19    21    22   ar
    20    22    25    1
    21    25    26    1
    22    26    27    1
    23    27    28    1
    24    28    29    1
    25    22    23   ar
    26    23    30    1
    27    30    31    1
    28    30    32    1
    29    30    33    1
    30    23    24   ar
    31    11    12    1
    32    12    13    2
    33     6     2    1
    34    13     8    1
    35    13     5    1
    36    24    19   ar
    37    29    25    1
@<TRIPOS>MOLECULE
*****
 33 37 0 0 0
SMALL
GASTEIGER

@<TRIPOS>ATOM
      1 O          62.1164   89.5105    9.2119 O.2     1  UNL1       -0.4710
      2 C          63.2678   82.2309   11.4487 C.3     1  UNL1        0.0458
      3 C          64.1362   82.2061   10.2258 C.3     1  UNL1        0.0110
      4 C          64.0772   83.5623    9.5878 C.3     1  UNL1        0.0280
      5 C          63.1723   84.4254   10.4163 C.2     1  UNL1       -0.0074
      6 C          62.6721   83.6025   11.5664 C.2     1  UNL1        0.0547
      7 N          61.7672   84.4655   12.3949 N.2     1  UNL1       -0.2540
      8 C          61.7082   85.8218   11.7569 C.2     1  UNL1        0.0628
      9 C          60.9759   87.0761   12.1314 C.3     1  UNL1        0.0749
     10 C          61.1120   88.3057   11.2831 C.2     1  UNL1        0.0171
     11 C          61.9803   88.2809   10.0603 C.2     1  UNL1        0.1352
     12 C          62.7126   87.0265    9.6857 C.2     1  UNL1        0.0375
     13 C          62.5766   85.7970   10.5340 C.2     1  UNL1        0.0140
     14 C          63.0359   81.0852   12.3887 C.3     1  UNL1        0.0476
     15 O          61.2056   80.9011   14.2234 O.co2   1  UNL1       -0.5492
     16 C          62.5704   81.3477   13.7903 C.2     1  UNL1        0.0507
     17 O          63.4698   82.0570   14.7589 O.co2   1  UNL1       -0.5492
     18 C          62.1187   90.8669    9.8523 C.3     1  UNL1        0.2320
     19 C          63.2225   91.2505   10.7928 C.ar    1  UNL1        0.0211
     20 C          63.2255   90.7277   12.1987 C.ar    1  UNL1       -0.0010
     21 C          64.3292   91.1113   13.1391 C.ar    1  UNL1       -0.0045
     22 C          65.4301   92.0177   12.6737 C.ar    1  UNL1       -0.0186
     23 C          65.4271   92.5405   11.2678 C.ar    1  UNL1        0.0673
     24 C          64.3233   92.1569   10.3273 C.ar    1  UNL1        0.0028
     25 C          66.5339   92.4012   13.6142 C.3     1  UNL1        0.0223
     26 C          66.5072   93.5438   14.5858 C.3     1  UNL1        0.0043
     27 C          67.8149   93.5583   15.3203 C.3     1  UNL1        0.0003
     28 C          68.6499   92.4247   14.8027 C.3     1  UNL1        0.0003
     29 C          67.8581   91.7097   13.7483 C.3     1  UNL1        0.0043
     30 C          66.5279   93.4469   10.8023 C.3     1  UNL1        0.4183
     31 F          67.6287   94.3533   10.3369 F       1  UNL1       -0.1659
     32 F          65.7413   94.6384   11.2622 F       1  UNL1       -0.1659
     33 F          67.3145   92.2554   10.3424 F       1  UNL1       -0.1659
@<TRIPOS>UNITY_ATOM_ATTR
15 1
charge -1
@<TRIPOS>BOND
     1    15    16   ar
     2    16    17   ar
     3    16    14    1
     4     2    14    1
     5     2     3    1
     6     3     4    1
     7     4     5    1
     8     5     6    2
     9     6     7    1
    10     7     8    2
    11     8     9    1
    12     9    10    1
    13    10    11    2
    14    11     1    1
    15     1    18    1
    16    18    19    1
    17    19    20   ar
    18    20    21   ar
    19    21    22   ar
    20    22    25    1
    21    25    26    1
    22    26    27    1
    23    27    28    1
    24    28    29    1
    25    22    23   ar
    26    23    30    1
    27    30    31    1
    28    30    32    1
    29    30    33    1
    30    23    24   ar
    31    11    12    1
    32    12    13    2
    33     6     2    1
    34    13     8    1
    35    13     5    1
    36    24    19   ar
    37    29    25    1
@<TRIPOS>MOLECULE
*****
 33 37 0 0 0
SMALL
GASTEIGER

@<TRIPOS>ATOM
      1 O          59.1255   88.9985    6.5733 O.2     1  UNL1       -0.4710
      2 C          63.5571   89.5867   12.8452 C.3     1  UNL1        0.0458
      3 C          63.6734   91.0086   12.3818 C.3     1  UNL1        0.0110
      4 C          62.8660   91.1544   11.1261 C.3     1  UNL1        0.0280
      5 C          62.2506   89.8226   10.8134 C.2     1  UNL1       -0.0074
      6 C          62.6778   88.8537   11.8759 C.2     1  UNL1        0.0547
      7 N          62.0624   87.5220   11.5632 N.2     1  UNL1       -0.2540
      8 C          61.2550   87.6677   10.3075 C.2     1  UNL1        0.0628
      9 C          60.4289   86.6895    9.5262 C.3     1  UNL1        0.0749
     10 C          59.7191   87.1331    8.2815 C.2     1  UNL1        0.0171
     11 C          59.8354   88.5549    7.8181 C.2     1  UNL1        0.1352
     12 C          60.6615   89.5332    8.5994 C.2     1  UNL1        0.0375
     13 C          61.3713   89.0896    9.8441 C.2     1  UNL1        0.0140
     14 C          64.2061   89.0007   14.0640 C.3     1  UNL1        0.0476
     15 O          63.2194   88.1729   16.3203 O.co2   1  UNL1       -0.5492
     16 C          63.6503   89.2968   15.4254 C.2     1  UNL1        0.0507
     17 O          63.5253   90.7170   15.8918 O.co2   1  UNL1       -0.5492
     18 C          58.8970   90.4592    6.3204 C.3     1  UNL1        0.2320
     19 C          59.5554   91.1300    5.1513 C.ar    1  UNL1        0.0211
     20 C          58.7897   92.1218    4.3268 C.ar    1  UNL1       -0.0010
     21 C          59.4481   92.7925    3.1578 C.ar    1  UNL1       -0.0045
     22 C          60.8723   92.4714    2.8133 C.ar    1  UNL1       -0.0186
     23 C          61.6380   91.4796    3.6379 C.ar    1  UNL1        0.0673
     24 C          60.9796   90.8089    4.8069 C.ar    1  UNL1        0.0028
     25 C          61.5307   93.1422    1.6443 C.3     1  UNL1        0.0223
     26 C          61.8653   92.4978    0.3317 C.3     1  UNL1        0.0043
     27 C          62.5115   93.5323   -0.5412 C.3     1  UNL1        0.0003
     28 C          62.5762   94.8162    0.2318 C.3     1  UNL1        0.0003
     29 C          61.9701   94.5750    1.5825 C.3     1  UNL1        0.0043
     30 C          63.0622   91.1585    3.2934 C.3     1  UNL1        0.4183
     31 F          64.4863   90.8374    2.9490 F       1  UNL1       -0.1659
     32 F          62.7023   89.7087    3.1568 F       1  UNL1       -0.1659
     33 F          63.4221   92.6082    3.4300 F       1  UNL1       -0.1659
@<TRIPOS>UNITY_ATOM_ATTR
15 1
charge -1
@<TRIPOS>BOND
     1    15    16   ar
     2    16    17   ar
     3    16    14    1
     4     2    14    1
     5     2     3    1
     6     3     4    1
     7     4     5    1
     8     5     6    2
     9     6     7    1
    10     7     8    2
    11     8     9    1
    12     9    10    1
    13    10    11    2
    14    11     1    1
    15     1    18    1
    16    18    19    1
    17    19    20   ar
    18    20    21   ar
    19    21    22   ar
    20    22    25    1
    21    25    26    1
    22    26    27    1
    23    27    28    1
    24    28    29    1
    25    22    23   ar
    26    23    30    1
    27    30    31    1
    28    30    32    1
    29    30    33    1
    30    23    24   ar
    31    11    12    1
    32    12    13    2
    33     6     2    1
    34    13     8    1
    35    13     5    1
    36    24    19   ar
    37    29    25    1
@<TRIPOS>MOLECULE
*****
 33 37 0 0 0
SMALL
GASTEIGER

@<TRIPOS>ATOM
      1 O          61.4943   89.0765   10.5889 O.2     1  UNL1       -0.4710
      2 C          66.3430   92.8641   15.2220 C.3     1  UNL1        0.0458
      3 C          65.7008   91.9991   16.2657 C.3     1  UNL1        0.0110
      4 C          64.6789   91.1355   15.5874 C.3     1  UNL1        0.0280
      5 C          64.6896   91.4668   14.1244 C.2     1  UNL1       -0.0074
      6 C          65.7181   92.5351   13.8987 C.2     1  UNL1        0.0547
      7 N          65.7288   92.8664   12.4358 N.2     1  UNL1       -0.2540
      8 C          64.7069   92.0028   11.7574 C.2     1  UNL1        0.0628
      9 C          64.2783   91.8924   10.3242 C.3     1  UNL1        0.0749
     10 C          63.2074   90.9170    9.9347 C.2     1  UNL1        0.0171
     11 C          62.5652   90.0520   10.9784 C.2     1  UNL1        0.1352
     12 C          62.9938   90.1624   12.4116 C.2     1  UNL1        0.0375
     13 C          64.0647   91.1378   12.8011 C.2     1  UNL1        0.0140
     14 C          67.4209   93.8797   15.4599 C.3     1  UNL1        0.0476
     15 O          69.8841   94.1122   16.2529 O.co2   1  UNL1       -0.5492
     16 C          68.8632   93.4816   15.3529 C.2     1  UNL1        0.0507
     17 O          69.2845   92.4527   14.3459 O.co2   1  UNL1       -0.5492
     18 C          61.8433   87.8639    9.7779 C.3     1  UNL1        0.2320
     19 C          62.1344   86.5617   10.4630 C.ar    1  UNL1        0.0211
     20 C          62.0677   85.2770    9.6916 C.ar    1  UNL1       -0.0010
     21 C          62.3589   83.9748   10.3768 C.ar    1  UNL1       -0.0045
     22 C          62.7167   83.9573   11.8334 C.ar    1  UNL1       -0.0186
     23 C          62.7834   85.2420   12.6048 C.ar    1  UNL1        0.0673
     24 C          62.4922   86.5442   11.9196 C.ar    1  UNL1        0.0028
     25 C          63.0078   82.6550   12.5186 C.3     1  UNL1        0.0223
     26 C          61.9926   81.6351   12.9417 C.3     1  UNL1        0.0043
     27 C          62.7225   80.4938   13.5856 C.3     1  UNL1        0.0003
     28 C          64.1890   80.8084   13.5603 C.3     1  UNL1        0.0003
     29 C          64.3653   82.1441   12.9009 C.3     1  UNL1        0.0043
     30 C          63.1412   85.2245   14.0614 C.3     1  UNL1        0.4183
     31 F          63.4990   85.2070   15.5180 F       1  UNL1       -0.1659
     32 F          64.4810   85.8171   13.7394 F       1  UNL1       -0.1659
     33 F          61.8013   84.6319   14.3834 F       1  UNL1       -0.1659
@<TRIPOS>UNITY_ATOM_ATTR
15 1
charge -1
@<TRIPOS>BOND
     1    15    16   ar
     2    16    17   ar
     3    16    14    1
     4     2    14    1
     5     2     3    1
     6     3     4    1
     7     4     5    1
     8     5     6    2
     9     6     7    1
    10     7     8    2
    11     8     9    1
    12     9    10    1
    13    10    11    2
    14    11     1    1
    15     1    18    1
    16    18    19    1
    17    19    20   ar
    18    20    21   ar
    19    21    22   ar
    20    22    25    1
    21    25    26    1
    22    26    27    1
    23    27    28    1
    24    28    29    1
    25    22    23   ar
    26    23    30    1
    27    30    31    1
    28    30    32    1
    29    30    33    1
    30    23    24   ar
    31    11    12    1
    32    12    13    2
    33     6     2    1
    34    13     8    1
    35    13     5    1
    36    24    19   ar
    37    29    25    1
@<TRIPOS>MOLECULE
*****
 33 37 0 0 0
SMALL
GASTEIGER

@<TRIPOS>ATOM
      1 O          61.0676   88.8228    9.1402 O.2     1  UNL1       -0.4710
      2 C          66.1850   93.3116   12.7437 C.3     1  UNL1        0.0458
      3 C          66.6489   93.5635   11.3396 C.3     1  UNL1        0.0110
      4 C          65.7757   92.7698   10.4134 C.3     1  UNL1        0.0280
      5 C          64.7722   92.0273   11.2452 C.2     1  UNL1       -0.0074
      6 C          65.0252   92.3622   12.6853 C.2     1  UNL1        0.0547
      7 N          64.0217   91.6197   13.5170 N.2     1  UNL1       -0.2540
      8 C          63.1485   90.8259   12.5909 C.2     1  UNL1        0.0628
      9 C          61.9910   89.9063   12.8448 C.3     1  UNL1        0.0749
     10 C          61.2974   89.2387   11.6945 C.2     1  UNL1        0.0171
     11 C          61.7613   89.4906   10.2905 C.2     1  UNL1        0.1352
     12 C          62.9188   90.4102   10.0366 C.2     1  UNL1        0.0375
     13 C          63.6124   91.0779   11.1869 C.2     1  UNL1        0.0140
     14 C          66.7770   93.9049   13.9876 C.3     1  UNL1        0.0476
     15 O          68.9854   92.5757   14.3130 O.co2   1  UNL1       -0.5492
     16 C          67.6810   93.0801   14.8551 C.2     1  UNL1        0.0507
     17 O          67.2805   92.7596   16.2647 O.co2   1  UNL1       -0.5492
     18 C          61.5024   87.4592    8.6915 C.3     1  UNL1        0.2320
     19 C          61.8385   86.4073    9.7068 C.ar    1  UNL1        0.0211
     20 C          61.2318   86.4667   11.0773 C.ar    1  UNL1       -0.0010
     21 C          61.5679   85.4148   12.0924 C.ar    1  UNL1       -0.0045
     22 C          62.5107   84.3036   11.7370 C.ar    1  UNL1       -0.0186
     23 C          63.1174   84.2442   10.3665 C.ar    1  UNL1        0.0673
     24 C          62.7813   85.2961    9.3514 C.ar    1  UNL1        0.0028
     25 C          62.8469   83.2517   12.7523 C.3     1  UNL1        0.0223
     26 C          63.7295   83.4337   13.9514 C.3     1  UNL1        0.0043
     27 C          63.7875   82.1277   14.6868 C.3     1  UNL1        0.0003
     28 C          62.9407   81.1384   13.9422 C.3     1  UNL1        0.0003
     29 C          62.3594   81.8331   12.7466 C.3     1  UNL1        0.0043
     30 C          64.0603   83.1330   10.0111 C.3     1  UNL1        0.4183
     31 F          65.0031   82.0218    9.6558 F       1  UNL1       -0.1659
     32 F          62.9127   82.3321    9.4711 F       1  UNL1       -0.1659
     33 F          65.2078   83.9339   10.5512 F       1  UNL1       -0.1659
@<TRIPOS>UNITY_ATOM_ATTR
15 1
charge -1
@<TRIPOS>BOND
     1    15    16   ar
     2    16    17   ar
     3    16    14    1
     4     2    14    1
     5     2     3    1
     6     3     4    1
     7     4     5    1
     8     5     6    2
     9     6     7    1
    10     7     8    2
    11     8     9    1
    12     9    10    1
    13    10    11    2
    14    11     1    1
    15     1    18    1
    16    18    19    1
    17    19    20   ar
    18    20    21   ar
    19    21    22   ar
    20    22    25    1
    21    25    26    1
    22    26    27    1
    23    27    28    1
    24    28    29    1
    25    22    23   ar
    26    23    30    1
    27    30    31    1
    28    30    32    1
    29    30    33    1
    30    23    24   ar
    31    11    12    1
    32    12    13    2
    33     6     2    1
    34    13     8    1
    35    13     5    1
    36    24    19   ar
    37    29    25    1
@<TRIPOS>MOLECULE
*****
 33 37 0 0 0
SMALL
GASTEIGER

@<TRIPOS>ATOM
      1 O          61.3827   88.5650    9.5104 O.2     1  UNL1       -0.4710
      2 C          66.2375   93.5323   12.8389 C.3     1  UNL1        0.0458
      3 C          66.5852   93.8359   11.4117 C.3     1  UNL1        0.0110
      4 C          65.7402   92.9620   10.5327 C.3     1  UNL1        0.0280
      5 C          64.8704   92.1183   11.4169 C.2     1  UNL1       -0.0074
      6 C          65.1777   92.4708   12.8421 C.2     1  UNL1        0.0547
      7 N          64.3079   91.6271   13.7261 N.2     1  UNL1       -0.2540
      8 C          63.4629   90.7532   12.8473 C.2     1  UNL1        0.0628
      9 C          62.4219   89.7202   13.1622 C.3     1  UNL1        0.0749
     10 C          61.7285   88.9908   12.0499 C.2     1  UNL1        0.0171
     11 C          62.0762   89.2944   10.6227 C.2     1  UNL1        0.1352
     12 C          63.1172   90.3274   10.3078 C.2     1  UNL1        0.0375
     13 C          63.8106   91.0568   11.4200 C.2     1  UNL1        0.0140
     14 C          66.8433   94.1770   14.0503 C.3     1  UNL1        0.0476
     15 O          67.0449   93.0643   16.3894 O.co2   1  UNL1       -0.5492
     16 C          67.6174   93.3488   15.0325 C.2     1  UNL1        0.0507
     17 O          68.9643   92.8049   14.6578 O.co2   1  UNL1       -0.5492
     18 C          62.0253   87.3611    8.8879 C.3     1  UNL1        0.2320
     19 C          62.3334   86.1569    9.7276 C.ar    1  UNL1        0.0211
     20 C          62.5717   84.8279    9.0742 C.ar    1  UNL1       -0.0010
     21 C          62.8797   83.6238    9.9139 C.ar    1  UNL1       -0.0045
     22 C          62.9494   83.7486   11.4071 C.ar    1  UNL1       -0.0186
     23 C          62.7111   85.0776   12.0605 C.ar    1  UNL1        0.0673
     24 C          62.4030   86.2817   11.2208 C.ar    1  UNL1        0.0028
     25 C          63.2575   82.5444   12.2468 C.3     1  UNL1        0.0223
     26 C          62.3511   81.3703   12.4705 C.3     1  UNL1        0.0043
     27 C          63.0594   80.4032   13.3722 C.3     1  UNL1        0.0003
     28 C          64.4035   80.9796   13.7057 C.3     1  UNL1        0.0003
     29 C          64.5259   82.3029   13.0101 C.3     1  UNL1        0.0043
     30 C          62.7808   85.2024   13.5537 C.3     1  UNL1        0.4183
     31 F          62.8505   85.3272   15.0468 F       1  UNL1       -0.1659
     32 F          63.9293   86.1580   13.4202 F       1  UNL1       -0.1659
     33 F          61.6323   84.2469   13.6872 F       1  UNL1       -0.1659
@<TRIPOS>UNITY_ATOM_ATTR
15 1
charge -1
@<TRIPOS>BOND
     1    15    16   ar
     2    16    17   ar
     3    16    14    1
     4     2    14    1
     5     2     3    1
     6     3     4    1
     7     4     5    1
     8     5     6    2
     9     6     7    1
    10     7     8    2
    11     8     9    1
    12     9    10    1
    13    10    11    2
    14    11     1    1
    15     1    18    1
    16    18    19    1
    17    19    20   ar
    18    20    21   ar
    19    21    22   ar
    20    22    25    1
    21    25    26    1
    22    26    27    1
    23    27    28    1
    24    28    29    1
    25    22    23   ar
    26    23    30    1
    27    30    31    1
    28    30    32    1
    29    30    33    1
    30    23    24   ar
    31    11    12    1
    32    12    13    2
    33     6     2    1
    34    13     8    1
    35    13     5    1
    36    24    19   ar
    37    29    25    1
@<TRIPOS>MOLECULE
*****
 33 37 0 0 0
SMALL
GASTEIGER

@<TRIPOS>ATOM
      1 O          59.6173   88.4487    6.9560 O.2     1  UNL1       -0.4710
      2 C          63.5975   83.9437   11.7712 C.3     1  UNL1        0.0458
      3 C          64.0428   83.3095   10.4868 C.3     1  UNL1        0.0110
      4 C          63.3789   84.0375    9.3557 C.3     1  UNL1        0.0280
      5 C          62.5233   85.1217    9.9411 C.2     1  UNL1       -0.0074
      6 C          62.6584   85.0637   11.4338 C.2     1  UNL1        0.0547
      7 N          61.8027   86.1478   12.0191 N.2     1  UNL1       -0.2540
      8 C          61.1388   86.8759   10.8881 C.2     1  UNL1        0.0628
      9 C          60.1864   88.0343   10.8617 C.3     1  UNL1        0.0749
     10 C          59.6792   88.5586    9.5511 C.2     1  UNL1        0.0171
     11 C          60.1245   87.9244    8.2667 C.2     1  UNL1        0.1352
     12 C          61.0770   86.7659    8.2931 C.2     1  UNL1        0.0375
     13 C          61.5842   86.2417    9.6038 C.2     1  UNL1        0.0140
     14 C          64.0175   83.5306   13.1506 C.3     1  UNL1        0.0476
     15 O          61.9365   83.5223   14.7061 O.co2   1  UNL1       -0.5492
     16 C          63.0599   82.7888   14.0354 C.2     1  UNL1        0.0507
     17 O          63.2259   81.3134   14.2496 O.co2   1  UNL1       -0.5492
     18 C          59.2151   89.8881    6.8292 C.3     1  UNL1        0.2320
     19 C          59.6192   90.6759    5.6183 C.ar    1  UNL1        0.0211
     20 C          58.6232   91.5657    4.9356 C.ar    1  UNL1       -0.0010
     21 C          59.0273   92.3534    3.7248 C.ar    1  UNL1       -0.0045
     22 C          60.4276   92.2513    3.1966 C.ar    1  UNL1       -0.0186
     23 C          61.4236   91.3615    3.8793 C.ar    1  UNL1        0.0673
     24 C          61.0194   90.5738    5.0901 C.ar    1  UNL1        0.0028
     25 C          60.8317   93.0391    1.9858 C.3     1  UNL1        0.0223
     26 C          61.2407   92.4697    0.6596 C.3     1  UNL1        0.0043
     27 C          61.5596   93.6132   -0.2573 C.3     1  UNL1        0.0003
     28 C          61.3476   94.8893    0.5022 C.3     1  UNL1        0.0003
     29 C          60.8978   94.5344    1.8884 C.3     1  UNL1        0.0043
     30 C          62.8238   91.2593    3.3511 C.3     1  UNL1        0.4183
     31 F          64.2240   91.1572    2.8229 F       1  UNL1       -0.1659
     32 F          62.9692   92.7491    3.4486 F       1  UNL1       -0.1659
     33 F          62.6784   89.7696    3.2536 F       1  UNL1       -0.1659
@<TRIPOS>UNITY_ATOM_ATTR
15 1
charge -1
@<TRIPOS>BOND
     1    15    16   ar
     2    16    17   ar
     3    16    14    1
     4     2    14    1
     5     2     3    1
     6     3     4    1
     7     4     5    1
     8     5     6    2
     9     6     7    1
    10     7     8    2
    11     8     9    1
    12     9    10    1
    13    10    11    2
    14    11     1    1
    15     1    18    1
    16    18    19    1
    17    19    20   ar
    18    20    21   ar
    19    21    22   ar
    20    22    25    1
    21    25    26    1
    22    26    27    1
    23    27    28    1
    24    28    29    1
    25    22    23   ar
    26    23    30    1
    27    30    31    1
    28    30    32    1
    29    30    33    1
    30    23    24   ar
    31    11    12    1
    32    12    13    2
    33     6     2    1
    34    13     8    1
    35    13     5    1
    36    24    19   ar
    37    29    25    1
