@<TRIPOS>MOLECULE
*****
 65 71 0 0 0
SMALL
GASTEIGER

@<TRIPOS>ATOM
      1 C          62.7474   81.1341   13.9971 C.3     1  UNL1        0.1175
      2 O          62.6235   82.4632   13.3130 O.3     1  UNL1       -0.3367
      3 C          63.3917   83.6451   13.8257 C.3     1  UNL1        0.1902
      4 C          64.2838   83.4979   15.0225 C.3     1  UNL1        0.0564
      5 C          64.4077   82.1688   15.7066 C.3     1  UNL1        0.0074
      6 C          63.6395   80.9869   15.1939 C.3     1  UNL1        0.0275
      7 C          63.7634   79.6577   15.8781 C.3     1  UNL1        0.0025
      8 C          64.1599   84.8270   14.3384 C.3     1  UNL1        0.0998
      9 C          64.0360   86.1562   13.6542 C.3     1  UNL1        0.1762
     10 C          63.1439   86.3034   12.4574 C.3     1  UNL1        0.0737
     11 C          62.3756   85.1215   11.9446 C.3     1  UNL1        0.1255
     12 C          61.2897   85.2261   10.5173 C.3     1  UNL1        0.0552
     13 C          60.6541   85.9993    9.4001 C.2     1  UNL1       -0.0298
     14 C          60.3456   87.1863    8.5366 C.2     1  UNL1       -0.0211
     15 C          59.3870   86.5889    7.5496 C.3     1  UNL1        0.0285
     16 C          60.4111   88.6065    8.0582 C.3     1  UNL1        0.1397
     17 C          60.8406   90.0435    8.0377 C.3     1  UNL1        0.0532
     18 C          60.3007   90.7920    7.0524 C.3     1  UNL1        0.0075
     19 C          61.5689   91.2786    8.4783 C.2     1  UNL1       -0.0237
     20 C          62.4848   92.1239    9.3128 C.2     1  UNL1       -0.0050
     21 C          63.4492   92.4505   10.4143 C.2     1  UNL1       -0.0041
     22 C          64.3151   92.2089   11.6151 C.2     1  UNL1        0.0122
     23 C          64.8112   93.6225   11.6889 C.3     1  UNL1        0.1668
     24 O          65.7535   93.7229   12.8517 O.3     1  UNL1       -0.3462
     25 C          65.8396   92.3713   13.4966 C.3     1  UNL1        0.1749
     26 C          66.8258   92.5670   14.6778 C.3     1  UNL1        0.1582
     27 O          67.6091   93.7262   15.2187 O.3     1  UNL1       -0.3778
     28 C          66.9246   91.2226   15.3358 C.2     1  UNL1       -0.0188
     29 C          67.8067   91.0376   16.5348 C.3     1  UNL1        0.0285
     30 C          66.1413   90.0634   14.7949 C.2     1  UNL1       -0.0188
     31 C          65.2592   90.2485   13.5958 C.3     1  UNL1        0.1510
     32 C          65.1937   88.8284   14.0743 C.2     1  UNL1        0.3232
     33 O          66.1267   88.8717   15.2479 O.2     1  UNL1       -0.2497
     34 O          64.7642   87.3914   14.0948 O.3     1  UNL1       -0.4517
     35 C          64.9507   91.4356   12.7323 C.3     1  UNL1        0.1467
     36 O          65.8328   91.2505   13.9313 O.3     1  UNL1       -0.3795
     37 O          62.4995   83.7923   12.6288 O.3     1  UNL1       -0.3362
     38 H          68.1233   93.4378   15.9890 H       1  UNL1        0.2109
     39 H          65.7819   90.3293   14.2310 H       1  UNL1        0.2108
     40 C          61.9791   79.9521   13.4844 C.3     1  UNL1        0.0273
     41 C          62.4543   79.2209   12.2639 C.3     1  UNL1        0.0025
     42 C          59.5051   80.3586   14.1654 C.3     1  UNL1        0.0001
     43 C          60.7358   79.5014   14.1921 C.3     1  UNL1        0.0024
     44 O          59.4780   88.5631    6.8845 O.3     1  UNL1       -0.3284
     45 C          59.4058   89.7267    5.9405 C.3     1  UNL1        0.2379
     46 C          60.6449   90.2056    5.2441 C.3     1  UNL1        0.0934
     47 C          60.5727   91.3692    4.3001 C.3     1  UNL1        0.1498
     48 C          59.2611   92.0537    4.0526 C.3     1  UNL1        0.1718
     49 C          58.0220   91.5748    4.7490 C.3     1  UNL1        0.1473
     50 C          56.7104   92.2593    4.5015 C.3     1  UNL1        0.0348
     51 O          58.0942   90.4112    5.6930 O.3     1  UNL1       -0.3304
     52 O          61.8118   91.8481    3.6038 O.3     1  UNL1       -0.3508
     53 C          62.9296   90.8895    3.3178 C.3     1  UNL1        0.1741
     54 O          59.1888   93.2172    3.1087 O.3     1  UNL1       -0.3279
     55 C          59.8775   93.1474    1.7781 C.3     1  UNL1        0.2377
     56 C          59.0963   92.7956    0.5467 C.3     1  UNL1        0.0934
     57 C          59.7850   92.7258   -0.7840 C.3     1  UNL1        0.1494
     58 C          61.2549   93.0077   -0.8834 C.3     1  UNL1        0.1647
     59 O          61.9436   92.9379   -2.2141 O.3     1  UNL1       -0.3795
     60 C          62.0361   93.3594    0.3479 C.3     1  UNL1        0.1469
     61 C          63.5060   93.6413    0.2484 C.3     1  UNL1        0.0348
     62 O          61.3474   93.4293    1.6785 O.3     1  UNL1       -0.3304
     63 H          61.2997   92.6998   -2.8993 H       1  UNL1        0.2105
     64 O          59.0038   92.3741   -2.0152 O.3     1  UNL1       -0.3508
     65 C          58.2090   93.4291   -2.7261 C.3     1  UNL1        0.1741
@<TRIPOS>BOND
     1    42    43    1
     2    43    40    1
     3    40    41    1
     4    40     1    1
     5     1     2    1
     6     2     3    1
     7     3     4    1
     8     4     5    1
     9     5     6    1
    10     6     7    1
    11     3     8    1
    12     9     8    1
    13     9    10    1
    14    10    11    1
    15    11    12    1
    16    12    13    1
    17    13    14    2
    18    14    15    1
    19    14    16    1
    20    16    44    1
    21    45    44    1
    22    45    46    1
    23    46    47    1
    24    47    52    1
    25    52    53    1
    26    47    48    1
    27    48    54    1
    28    55    54    1
    29    55    56    1
    30    56    57    1
    31    57    64    1
    32    64    65    1
    33    57    58    1
    34    58    59    1
    35    58    60    1
    36    60    61    1
    37    60    62    1
    38    48    49    1
    39    49    50    1
    40    49    51    1
    41    16    17    1
    42    17    18    1
    43    17    19    1
    44    19    20    2
    45    20    21    1
    46    21    22    2
    47    22    23    1
    48    23    24    1
    49    25    24    1
    50    25    26    1
    51    26    27    1
    52    26    28    1
    53    28    29    1
    54    28    30    2
    55    31    30    1
    56    31    32    1
    57    32    33    2
    58    32    34    1
    59    31    35    1
    60    35    36    1
    61    11    37    1
    62     6     1    1
    63    34     9    1
    64    37     3    1
    65    51    45    1
    66    35    22    1
    67    62    55    1
    68    35    25    1
    69    59    63    1
    70    27    38    1
    71    36    39    1
@<TRIPOS>MOLECULE
*****
 65 71 0 0 0
SMALL
GASTEIGER

@<TRIPOS>ATOM
      1 C          62.7607   81.1799   14.0406 C.3     1  UNL1        0.1175
      2 O          62.6490   82.5058   13.3483 O.3     1  UNL1       -0.3367
      3 C          63.4158   83.6877   13.8632 C.3     1  UNL1        0.1902
      4 C          64.2942   83.5437   15.0705 C.3     1  UNL1        0.0564
      5 C          64.4059   82.2178   15.7628 C.3     1  UNL1        0.0074
      6 C          63.6391   81.0359   15.2479 C.3     1  UNL1        0.0275
      7 C          63.7508   79.7099   15.9403 C.3     1  UNL1        0.0025
      8 C          64.1825   84.8697   14.3781 C.3     1  UNL1        0.0998
      9 C          64.0708   86.1956   13.6857 C.3     1  UNL1        0.1762
     10 C          63.1924   86.3397   12.4784 C.3     1  UNL1        0.0737
     11 C          62.4256   85.1577   11.9635 C.3     1  UNL1        0.1255
     12 C          61.3557   85.2586   10.5238 C.3     1  UNL1        0.0552
     13 C          60.7351   86.0282    9.3957 C.2     1  UNL1       -0.0298
     14 C          60.4403   87.2118    8.5227 C.2     1  UNL1       -0.0211
     15 C          59.4904   86.6125    7.5284 C.3     1  UNL1        0.0285
     16 C          60.5161   88.6292    8.0376 C.3     1  UNL1        0.1397
     17 C          60.9510   90.0645    8.0143 C.3     1  UNL1        0.0532
     18 C          60.4245   90.8097    7.0193 C.3     1  UNL1        0.0075
     19 C          61.6787   91.2994    8.4564 C.2     1  UNL1       -0.0237
     20 C          62.5885   92.1458    9.2965 C.2     1  UNL1       -0.0050
     21 C          63.5419   92.4748   10.4068 C.2     1  UNL1       -0.0041
     22 C          64.3938   92.2365   11.6182 C.2     1  UNL1        0.0122
     23 C          64.8942   93.6487   11.6900 C.3     1  UNL1        0.1668
     24 O          65.8240   93.7519   12.8625 O.3     1  UNL1       -0.3462
     25 C          65.8983   92.4034   13.5154 C.3     1  UNL1        0.1749
     26 C          66.8722   92.6018   14.7063 C.3     1  UNL1        0.1582
     27 O          67.6537   93.7612   15.2497 O.3     1  UNL1       -0.3778
     28 C          66.9590   91.2607   15.3723 C.2     1  UNL1       -0.0188
     29 C          67.8272   91.0788   16.5819 C.3     1  UNL1        0.0285
     30 C          66.1775   90.1014   14.8290 C.2     1  UNL1       -0.0188
     31 C          65.3092   90.2833   13.6193 C.3     1  UNL1        0.1510
     32 C          65.2335   88.8659   14.1045 C.2     1  UNL1        0.3232
     33 O          66.1538   88.9121   15.2880 O.2     1  UNL1       -0.2497
     34 O          64.7986   87.4305   14.1277 O.3     1  UNL1       -0.4517
     35 C          65.0144   91.4669   12.7463 C.3     1  UNL1        0.1467
     36 O          65.8827   91.2849   13.9559 O.3     1  UNL1       -0.3795
     37 O          62.5373   83.8318   12.6559 O.3     1  UNL1       -0.3362
     38 H          68.1583   93.4750   16.0271 H       1  UNL1        0.2109
     39 H          65.8253   90.3655   14.2598 H       1  UNL1        0.2108
     40 C          61.9939   79.9980   13.5257 C.3     1  UNL1        0.0273
     41 C          62.5046   79.2302   12.3427 C.3     1  UNL1        0.0025
     42 C          59.5094   80.4715   14.1201 C.3     1  UNL1        0.0001
     43 C          60.7164   79.5839   14.1938 C.3     1  UNL1        0.0024
     44 O          59.5957   88.5829    6.8540 O.3     1  UNL1       -0.3284
     45 C          59.5113   89.7564    5.9234 C.3     1  UNL1        0.2379
     46 C          58.2064   90.4716    5.7348 C.3     1  UNL1        0.0934
     47 C          58.1220   91.6451    4.8042 C.3     1  UNL1        0.1498
     48 C          59.3425   92.1031    4.0622 C.3     1  UNL1        0.1718
     49 C          60.6474   91.3878    4.2508 C.3     1  UNL1        0.1473
     50 C          61.8679   91.8459    3.5088 C.3     1  UNL1        0.0348
     51 O          60.7318   90.2144    5.1814 O.3     1  UNL1       -0.3304
     52 O          56.8172   92.3604    4.6156 O.3     1  UNL1       -0.3508
     53 C          55.5240   91.6228    4.7995 C.3     1  UNL1        0.1741
     54 O          59.2581   93.2765    3.1316 O.3     1  UNL1       -0.3279
     55 C          59.8928   93.2046    1.7745 C.3     1  UNL1        0.2377
     56 C          59.0802   92.7778    0.5880 C.3     1  UNL1        0.0934
     57 C          59.7149   92.7059   -0.7691 C.3     1  UNL1        0.1494
     58 C          61.1623   93.0607   -0.9400 C.3     1  UNL1        0.1647
     59 O          61.7969   92.9888   -2.2971 O.3     1  UNL1       -0.3795
     60 C          61.9749   93.4875    0.2464 C.3     1  UNL1        0.1469
     61 C          63.4223   93.8424    0.0756 C.3     1  UNL1        0.0348
     62 O          61.3402   93.5594    1.6035 O.3     1  UNL1       -0.3304
     63 H          61.1382   92.6982   -2.9471 H       1  UNL1        0.2105
     64 O          58.9022   92.2791   -1.9555 O.3     1  UNL1       -0.3508
     65 C          58.1279   93.2969   -2.7395 C.3     1  UNL1        0.1741
@<TRIPOS>BOND
     1    42    43    1
     2    43    40    1
     3    40    41    1
     4    40     1    1
     5     1     2    1
     6     2     3    1
     7     3     4    1
     8     4     5    1
     9     5     6    1
    10     6     7    1
    11     3     8    1
    12     9     8    1
    13     9    10    1
    14    10    11    1
    15    11    12    1
    16    12    13    1
    17    13    14    2
    18    14    15    1
    19    14    16    1
    20    16    44    1
    21    45    44    1
    22    45    46    1
    23    46    47    1
    24    47    52    1
    25    52    53    1
    26    47    48    1
    27    48    54    1
    28    55    54    1
    29    55    56    1
    30    56    57    1
    31    57    64    1
    32    64    65    1
    33    57    58    1
    34    58    59    1
    35    58    60    1
    36    60    61    1
    37    60    62    1
    38    48    49    1
    39    49    50    1
    40    49    51    1
    41    16    17    1
    42    17    18    1
    43    17    19    1
    44    19    20    2
    45    20    21    1
    46    21    22    2
    47    22    23    1
    48    23    24    1
    49    25    24    1
    50    25    26    1
    51    26    27    1
    52    26    28    1
    53    28    29    1
    54    28    30    2
    55    31    30    1
    56    31    32    1
    57    32    33    2
    58    32    34    1
    59    31    35    1
    60    35    36    1
    61    11    37    1
    62     6     1    1
    63    34     9    1
    64    37     3    1
    65    51    45    1
    66    35    22    1
    67    62    55    1
    68    35    25    1
    69    59    63    1
    70    27    38    1
    71    36    39    1
@<TRIPOS>MOLECULE
*****
 65 71 0 0 0
SMALL
GASTEIGER

@<TRIPOS>ATOM
      1 C          66.2989   94.3028   13.3548 C.3     1  UNL1        0.1175
      2 O          65.4871   93.2270   12.6963 O.3     1  UNL1       -0.3367
      3 C          65.5089   91.8303   13.2429 C.3     1  UNL1        0.1902
      4 C          66.3425   91.5094   14.4479 C.3     1  UNL1        0.0564
      5 C          67.1543   92.5852   15.1064 C.3     1  UNL1        0.0074
      6 C          67.1325   93.9819   14.5598 C.3     1  UNL1        0.0275
      7 C          67.9444   95.0578   15.2183 C.3     1  UNL1        0.0025
      8 C          65.5307   90.4336   13.7895 C.3     1  UNL1        0.0998
      9 C          64.7188   89.3578   13.1310 C.3     1  UNL1        0.1762
     10 C          63.8853   89.6787   11.9260 C.3     1  UNL1        0.0737
     11 C          63.8635   91.0754   11.3794 C.3     1  UNL1        0.1255
     12 C          62.8884   91.5299    9.9405 C.3     1  UNL1        0.0552
     13 C          61.9391   91.1863    8.8312 C.2     1  UNL1       -0.0298
     14 C          61.0465   90.3246    7.9882 C.2     1  UNL1       -0.0211
     15 C          60.5527   91.3163    6.9768 C.3     1  UNL1        0.0285
     16 C          60.3466   89.0760    7.5396 C.3     1  UNL1        0.1397
     17 C          59.9460   87.6306    7.5540 C.3     1  UNL1        0.0532
     18 C          59.0908   87.2603    6.5772 C.3     1  UNL1        0.0075
     19 C          59.9056   86.2084    8.0290 C.2     1  UNL1       -0.0237
     20 C          60.2316   85.0259    8.8924 C.2     1  UNL1       -0.0050
     21 C          60.8743   84.2632   10.0127 C.2     1  UNL1       -0.0041
     22 C          61.7359   84.0363   11.2194 C.2     1  UNL1        0.0122
     23 C          61.4042   82.5775   11.3284 C.3     1  UNL1        0.1668
     24 O          62.1485   82.0196   12.5051 O.3     1  UNL1       -0.3462
     25 C          62.9403   83.1335   13.1234 C.3     1  UNL1        0.1749
     26 C          63.6712   82.4719   14.3210 C.3     1  UNL1        0.1582
     27 O          63.7178   81.0871   14.8955 O.3     1  UNL1       -0.3778
     28 C          64.4698   83.5734   14.9527 C.2     1  UNL1       -0.0188
     29 C          65.3150   83.2899   16.1590 C.3     1  UNL1        0.0285
     30 C          64.4232   84.9581   14.3782 C.2     1  UNL1       -0.0188
     31 C          63.5779   85.2416   13.1718 C.3     1  UNL1        0.1510
     32 C          64.2778   86.4902   13.6204 C.2     1  UNL1        0.3232
     33 O          65.0447   85.9857   14.8067 O.2     1  UNL1       -0.2497
     34 O          64.6784   87.9356   13.6060 O.3     1  UNL1       -0.4517
     35 C          62.6853   84.3799   12.3287 C.3     1  UNL1        0.1467
     36 O          63.5306   84.0965   13.5351 O.3     1  UNL1       -0.3795
     37 O          64.6753   92.1512   12.0378 O.3     1  UNL1       -0.3362
     38 H          64.3065   81.0765   15.6664 H       1  UNL1        0.2109
     39 H          63.9775   84.9106   13.8152 H       1  UNL1        0.2108
     40 C          66.2772   95.6995   12.8082 C.3     1  UNL1        0.0273
     41 C          65.9818   96.8559   13.7167 C.3     1  UNL1        0.0025
     42 C          65.4119   96.1619   10.4025 C.3     1  UNL1        0.0001
     43 C          66.5508   95.9399   11.3531 C.3     1  UNL1        0.0024
     44 O          59.5797   89.5806    6.3533 O.3     1  UNL1       -0.3284
     45 C          60.2689   90.4145    5.3141 C.3     1  UNL1        0.2379
     46 C          59.5901   91.6306    4.7572 C.3     1  UNL1        0.0934
     47 C          60.2793   92.4645    3.7181 C.3     1  UNL1        0.1498
     48 C          61.6473   92.0822    3.2360 C.3     1  UNL1        0.1718
     49 C          62.3261   90.8662    3.7930 C.3     1  UNL1        0.1473
     50 C          63.6941   90.4839    3.3110 C.3     1  UNL1        0.0348
     51 O          61.6370   90.0322    4.8321 O.3     1  UNL1       -0.3304
     52 O          59.6004   93.6806    3.1611 O.3     1  UNL1       -0.3508
     53 C          60.3899   94.9309    2.9088 C.3     1  UNL1        0.1741
     54 O          62.3365   92.9161    2.1970 O.3     1  UNL1       -0.3279
     55 C          61.7540   93.0302    0.8195 C.3     1  UNL1        0.2377
     56 C          62.6051   93.5137   -0.3172 C.3     1  UNL1        0.0934
     57 C          62.0226   93.6278   -1.6947 C.3     1  UNL1        0.1494
     58 C          60.5889   93.2583   -1.9357 C.3     1  UNL1        0.1647
     59 O          60.0064   93.3724   -3.3132 O.3     1  UNL1       -0.3795
     60 C          59.7378   92.7748   -0.7991 C.3     1  UNL1        0.1469
     61 C          58.3041   92.4052   -1.0401 C.3     1  UNL1        0.0348
     62 O          60.3203   92.6607    0.5784 O.3     1  UNL1       -0.3304
     63 H          60.6851   93.6972   -3.9253 H       1  UNL1        0.2105
     64 O          62.8737   94.1114   -2.8312 O.3     1  UNL1       -0.3508
     65 C          63.5506   93.1234   -3.7345 C.3     1  UNL1        0.1741
@<TRIPOS>BOND
     1    42    43    1
     2    43    40    1
     3    40    41    1
     4    40     1    1
     5     1     2    1
     6     2     3    1
     7     3     4    1
     8     4     5    1
     9     5     6    1
    10     6     7    1
    11     3     8    1
    12     9     8    1
    13     9    10    1
    14    10    11    1
    15    11    12    1
    16    12    13    1
    17    13    14    2
    18    14    15    1
    19    14    16    1
    20    16    44    1
    21    45    44    1
    22    45    46    1
    23    46    47    1
    24    47    52    1
    25    52    53    1
    26    47    48    1
    27    48    54    1
    28    55    54    1
    29    55    56    1
    30    56    57    1
    31    57    64    1
    32    64    65    1
    33    57    58    1
    34    58    59    1
    35    58    60    1
    36    60    61    1
    37    60    62    1
    38    48    49    1
    39    49    50    1
    40    49    51    1
    41    16    17    1
    42    17    18    1
    43    17    19    1
    44    19    20    2
    45    20    21    1
    46    21    22    2
    47    22    23    1
    48    23    24    1
    49    25    24    1
    50    25    26    1
    51    26    27    1
    52    26    28    1
    53    28    29    1
    54    28    30    2
    55    31    30    1
    56    31    32    1
    57    32    33    2
    58    32    34    1
    59    31    35    1
    60    35    36    1
    61    11    37    1
    62     6     1    1
    63    34     9    1
    64    37     3    1
    65    51    45    1
    66    35    22    1
    67    62    55    1
    68    35    25    1
    69    59    63    1
    70    27    38    1
    71    36    39    1
@<TRIPOS>MOLECULE
*****
 65 71 0 0 0
SMALL
GASTEIGER

@<TRIPOS>ATOM
      1 C          66.2844   94.3005   13.3499 C.3     1  UNL1        0.1175
      2 O          65.4753   93.2261   12.6859 O.3     1  UNL1       -0.3367
      3 C          65.4956   91.8280   13.2291 C.3     1  UNL1        0.1902
      4 C          66.3250   91.5044   14.4363 C.3     1  UNL1        0.0564
      5 C          67.1341   92.5788   15.1003 C.3     1  UNL1        0.0074
      6 C          67.1138   93.9768   14.5571 C.3     1  UNL1        0.0275
      7 C          67.9230   95.0513   15.2211 C.3     1  UNL1        0.0025
      8 C          65.5159   90.4300   13.7723 C.3     1  UNL1        0.0998
      9 C          64.7067   89.3556   13.1082 C.3     1  UNL1        0.1762
     10 C          63.8773   89.6792   11.9011 C.3     1  UNL1        0.0737
     11 C          63.8570   91.0772   11.3579 C.3     1  UNL1        0.1255
     12 C          62.8870   91.5350    9.9167 C.3     1  UNL1        0.0552
     13 C          61.9416   91.1939    8.8031 C.2     1  UNL1       -0.0298
     14 C          61.0524   90.3340    7.9548 C.2     1  UNL1       -0.0211
     15 C          60.5618   91.3281    6.9442 C.3     1  UNL1        0.0285
     16 C          60.3545   89.0863    7.5007 C.3     1  UNL1        0.1397
     17 C          59.9543   87.6407    7.5100 C.3     1  UNL1        0.0532
     18 C          59.1027   87.2726    6.5294 C.3     1  UNL1        0.0075
     19 C          59.9126   86.2173    7.9814 C.2     1  UNL1       -0.0237
     20 C          60.2359   85.0328    8.8430 C.2     1  UNL1       -0.0050
     21 C          60.8748   84.2675    9.9637 C.2     1  UNL1       -0.0041
     22 C          61.7323   84.0379   11.1729 C.2     1  UNL1        0.0122
     23 C          61.4006   82.5788   11.2771 C.3     1  UNL1        0.1668
     24 O          62.1409   82.0181   12.4550 O.3     1  UNL1       -0.3462
     25 C          62.9301   83.1307   13.0789 C.3     1  UNL1        0.1749
     26 C          63.6570   82.4664   14.2775 C.3     1  UNL1        0.1582
     27 O          63.7020   81.0802   14.8487 O.3     1  UNL1       -0.3778
     28 C          64.4530   83.5665   14.9147 C.2     1  UNL1       -0.0188
     29 C          65.2940   83.2803   16.1233 C.3     1  UNL1        0.0285
     30 C          64.4080   84.9527   14.3435 C.2     1  UNL1       -0.0188
     31 C          63.5669   85.2389   13.1348 C.3     1  UNL1        0.1510
     32 C          64.2648   86.4866   13.5890 C.2     1  UNL1        0.3232
     33 O          65.0277   85.9794   14.7767 O.2     1  UNL1       -0.2497
     34 O          64.6650   87.9321   13.5796 O.3     1  UNL1       -0.4517
     35 C          62.6776   84.3790   12.2864 C.3     1  UNL1        0.1467
     36 O          63.5187   84.0929   13.4951 O.3     1  UNL1       -0.3795
     37 O          64.6661   92.1517   12.0219 O.3     1  UNL1       -0.3362
     38 H          64.2879   81.0678   15.6216 H       1  UNL1        0.2109
     39 H          63.9643   84.9064   13.7788 H       1  UNL1        0.2108
     40 C          66.2642   95.6985   12.8067 C.3     1  UNL1        0.0273
     41 C          65.9862   96.8545   13.7212 C.3     1  UNL1        0.0025
     42 C          65.4224   95.7375   10.3491 C.3     1  UNL1        0.0001
     43 C          66.5219   95.9406   11.3490 C.3     1  UNL1        0.0024
     44 O          59.5916   89.5936    6.3129 O.3     1  UNL1       -0.3284
     45 C          60.2855   90.4260    5.2757 C.3     1  UNL1        0.2379
     46 C          59.5967   91.6235    4.6914 C.3     1  UNL1        0.0934
     47 C          60.2906   92.4560    3.6542 C.3     1  UNL1        0.1498
     48 C          61.6732   92.0907    3.2014 C.3     1  UNL1        0.1718
     49 C          62.3619   90.8932    3.7857 C.3     1  UNL1        0.1473
     50 C          63.7445   90.5280    3.3329 C.3     1  UNL1        0.0348
     51 O          61.6681   90.0608    4.8229 O.3     1  UNL1       -0.3304
     52 O          59.6019   93.6535    3.0699 O.3     1  UNL1       -0.3508
     53 C          60.2410   95.0072    3.1653 C.3     1  UNL1        0.1741
     54 O          62.3670   92.9231    2.1642 O.3     1  UNL1       -0.3279
     55 C          61.7854   93.0433    0.7869 C.3     1  UNL1        0.2377
     56 C          60.4121   92.5105    0.5034 C.3     1  UNL1        0.0934
     57 C          59.8305   92.6306   -0.8739 C.3     1  UNL1        0.1494
     58 C          60.6221   93.2837   -1.9680 C.3     1  UNL1        0.1647
     59 O          60.0404   93.4038   -3.3453 O.3     1  UNL1       -0.3795
     60 C          61.9953   93.8165   -1.6846 C.3     1  UNL1        0.1469
     61 C          62.7869   94.4695   -2.7787 C.3     1  UNL1        0.0348
     62 O          62.5769   93.6963   -0.3073 O.3     1  UNL1       -0.3304
     63 H          59.1530   93.0123   -3.3569 H       1  UNL1        0.2105
     64 O          58.4572   92.0978   -1.1573 O.3     1  UNL1       -0.3508
     65 C          57.2495   92.9246   -0.8290 C.3     1  UNL1        0.1741
@<TRIPOS>BOND
     1    42    43    1
     2    43    40    1
     3    40    41    1
     4    40     1    1
     5     1     2    1
     6     2     3    1
     7     3     4    1
     8     4     5    1
     9     5     6    1
    10     6     7    1
    11     3     8    1
    12     9     8    1
    13     9    10    1
    14    10    11    1
    15    11    12    1
    16    12    13    1
    17    13    14    2
    18    14    15    1
    19    14    16    1
    20    16    44    1
    21    45    44    1
    22    45    46    1
    23    46    47    1
    24    47    52    1
    25    52    53    1
    26    47    48    1
    27    48    54    1
    28    55    54    1
    29    55    56    1
    30    56    57    1
    31    57    64    1
    32    64    65    1
    33    57    58    1
    34    58    59    1
    35    58    60    1
    36    60    61    1
    37    60    62    1
    38    48    49    1
    39    49    50    1
    40    49    51    1
    41    16    17    1
    42    17    18    1
    43    17    19    1
    44    19    20    2
    45    20    21    1
    46    21    22    2
    47    22    23    1
    48    23    24    1
    49    25    24    1
    50    25    26    1
    51    26    27    1
    52    26    28    1
    53    28    29    1
    54    28    30    2
    55    31    30    1
    56    31    32    1
    57    32    33    2
    58    32    34    1
    59    31    35    1
    60    35    36    1
    61    11    37    1
    62     6     1    1
    63    34     9    1
    64    37     3    1
    65    51    45    1
    66    35    22    1
    67    62    55    1
    68    35    25    1
    69    59    63    1
    70    27    38    1
    71    36    39    1
