@<TRIPOS>MOLECULE
*****
 34 36 0 0 0
SMALL
GASTEIGER

@<TRIPOS>ATOM
      1 N          64.3801   92.6343   16.4064 N.pl3   1  UNL1       -0.3568
      2 C          64.2315   91.2156   15.9425 C.ar    1  UNL1        0.0482
      3 C          63.5018   90.2202   16.7950 C.ar    1  UNL1        0.0452
      4 C          63.3531   88.8016   16.3311 C.ar    1  UNL1        0.1598
      5 F          62.6234   87.8062   17.1837 F       1  UNL1       -0.2027
      6 C          63.9342   88.3782   15.0146 C.ar    1  UNL1        0.1497
      7 C          64.6639   89.3735   14.1621 C.ar    1  UNL1        0.0280
      8 C          64.8126   90.7922   14.6261 C.ar    1  UNL1        0.0680
      9 H          63.9987   92.9121   17.2704 H       1  UNL1        0.1424
     10 H          64.8590   93.2875   15.8468 H       1  UNL1        0.1424
     11 C          65.5423   91.7875   13.7735 C.2     1  UNL1        0.2507
     12 O          66.6192   92.6421   14.3733 O.2     1  UNL1       -0.2698
     13 N          65.1951   91.9282   12.3210 N.am    1  UNL1       -0.2802
     14 H          64.4883   91.3673   11.9273 H       1  UNL1        0.1552
     15 C          65.9248   92.9235   11.4684 C.ar    1  UNL1        0.0552
     16 C          66.8069   92.4501   10.3513 C.ar    1  UNL1        0.0468
     17 C          67.5366   93.4455    9.4987 C.ar    1  UNL1        0.1709
     18 F          68.4187   92.9722    8.3816 F       1  UNL1       -0.2017
     19 C          67.3842   94.9141    9.7632 C.ar    1  UNL1        0.1947
     20 F          68.1139   95.9093    8.9106 F       1  UNL1       -0.1994
     21 C          66.5021   95.3874   10.8803 C.ar    1  UNL1        0.1709
     22 F          66.3498   96.8560   11.1448 F       1  UNL1       -0.2017
     23 C          65.7725   94.3921   11.7329 C.ar    1  UNL1        0.0468
     24 S          63.7856   86.9595   14.5507 S.O2    1  UNL1        0.0655
     25 O          63.4882   87.4445   13.1628 O.2     1  UNL1       -0.1527
     26 O          64.0830   86.4745   15.9387 O.2     1  UNL1       -0.1527
     27 N          63.6370   85.5408   14.0868 N.3     1  UNL1       -0.1553
     28 C          63.1111   85.2525   12.7119 C.3     1  UNL1        0.0983
     29 C          62.9625   83.8338   12.2480 C.3     1  UNL1        0.0484
     30 C          63.3397   82.7034   13.1590 C.3     1  UNL1        0.1134
     31 O          63.1911   81.2847   12.6951 O.3     1  UNL1       -0.3844
     32 C          63.8656   82.9917   14.5338 C.3     1  UNL1        0.0484
     33 C          64.0142   84.4104   14.9978 C.3     1  UNL1        0.0983
     34 H          63.9534   81.0424   12.1463 H       1  UNL1        0.2103
@<TRIPOS>BOND
     1     1     2    1
     2     2     3   ar
     3     3     4   ar
     4     4     5    1
     5     4     6   ar
     6     6    24    1
     7    24    25    2
     8    24    26    2
     9    24    27    1
    10    27    28    1
    11    28    29    1
    12    29    30    1
    13    30    31    1
    14    30    32    1
    15    32    33    1
    16     6     7   ar
    17     7     8   ar
    18     8    11    1
    19    11    12    2
    20    11    13   am
    21    13    15    1
    22    15    16   ar
    23    16    17   ar
    24    17    18    1
    25    17    19   ar
    26    19    20    1
    27    19    21   ar
    28    21    22    1
    29    21    23   ar
    30     8     2   ar
    31    23    15   ar
    32    33    27    1
    33     1     9    1
    34     1    10    1
    35    31    34    1
    36    13    14    1
@<TRIPOS>MOLECULE
*****
 34 36 0 0 0
SMALL
GASTEIGER

@<TRIPOS>ATOM
      1 N          64.3800   92.6174   16.4155 N.pl3   1  UNL1       -0.3568
      2 C          64.2328   91.1994   15.9491 C.ar    1  UNL1        0.0482
      3 C          63.5028   90.2022   16.7992 C.ar    1  UNL1        0.0452
      4 C          63.3555   88.7842   16.3328 C.ar    1  UNL1        0.1598
      5 F          62.6255   87.7870   17.1829 F       1  UNL1       -0.2027
      6 C          63.9383   88.3634   15.0163 C.ar    1  UNL1        0.1497
      7 C          64.6683   89.3605   14.1662 C.ar    1  UNL1        0.0280
      8 C          64.8156   90.7785   14.6326 C.ar    1  UNL1        0.0680
      9 H          63.9975   92.8936   17.2796 H       1  UNL1        0.1424
     10 H          64.8592   93.2719   15.8575 H       1  UNL1        0.1424
     11 C          65.5457   91.7757   13.7824 C.2     1  UNL1        0.2507
     12 O          66.6289   92.6223   14.3823 O.2     1  UNL1       -0.2698
     13 N          65.1924   91.9263   12.3324 N.am    1  UNL1       -0.2802
     14 H          64.4815   91.3706   11.9387 H       1  UNL1        0.1552
     15 C          65.9224   92.9234   11.4823 C.ar    1  UNL1        0.0552
     16 C          65.7764   94.3911   11.7551 C.ar    1  UNL1        0.0468
     17 C          66.5065   95.3883   10.9048 C.ar    1  UNL1        0.1709
     18 F          66.3605   96.8560   11.1777 F       1  UNL1       -0.2017
     19 C          67.3825   94.9176    9.7819 C.ar    1  UNL1        0.1947
     20 F          68.1125   95.9148    8.9317 F       1  UNL1       -0.1994
     21 C          67.5285   93.4499    9.5090 C.ar    1  UNL1        0.1709
     22 F          68.4045   92.9793    8.3861 F       1  UNL1       -0.2017
     23 C          66.7985   92.4528   10.3592 C.ar    1  UNL1        0.0468
     24 S          63.7911   86.9453   14.5499 S.O2    1  UNL1        0.0655
     25 O          64.0817   86.4584   15.9385 O.2     1  UNL1       -0.1527
     26 O          63.5005   87.4323   13.1612 O.2     1  UNL1       -0.1527
     27 N          63.6438   85.5273   14.0834 N.3     1  UNL1       -0.1553
     28 C          63.9943   84.3952   15.0028 C.3     1  UNL1        0.0983
     29 C          63.8471   82.9771   14.5364 C.3     1  UNL1        0.0484
     30 C          63.3494   82.6913   13.1506 C.3     1  UNL1        0.1134
     31 O          63.2021   81.2733   12.6842 O.3     1  UNL1       -0.3844
     32 C          62.9989   83.8234   12.2312 C.3     1  UNL1        0.0484
     33 C          63.1461   85.2415   12.6976 C.3     1  UNL1        0.0983
     34 H          62.3662   80.9092   13.0151 H       1  UNL1        0.2103
@<TRIPOS>BOND
     1     1     2    1
     2     2     3   ar
     3     3     4   ar
     4     4     5    1
     5     4     6   ar
     6     6    24    1
     7    24    25    2
     8    24    26    2
     9    24    27    1
    10    27    28    1
    11    28    29    1
    12    29    30    1
    13    30    31    1
    14    30    32    1
    15    32    33    1
    16     6     7   ar
    17     7     8   ar
    18     8    11    1
    19    11    12    2
    20    11    13   am
    21    13    15    1
    22    15    16   ar
    23    16    17   ar
    24    17    18    1
    25    17    19   ar
    26    19    20    1
    27    19    21   ar
    28    21    22    1
    29    21    23   ar
    30     8     2   ar
    31    23    15   ar
    32    33    27    1
    33     1     9    1
    34     1    10    1
    35    31    34    1
    36    13    14    1
@<TRIPOS>MOLECULE
*****
 34 36 0 0 0
SMALL
GASTEIGER

@<TRIPOS>ATOM
      1 N          60.1716   87.4377    9.0572 N.pl3   1  UNL1       -0.3568
      2 C          61.0891   88.2494    9.9229 C.ar    1  UNL1        0.0482
      3 C          61.0947   89.7454    9.8139 C.ar    1  UNL1        0.0452
      4 C          62.0122   90.5570   10.6796 C.ar    1  UNL1        0.1598
      5 F          62.0178   92.0531   10.5706 F       1  UNL1       -0.2027
      6 C          62.9242   89.8727   11.6543 C.ar    1  UNL1        0.1497
      7 C          62.9186   88.3767   11.7632 C.ar    1  UNL1        0.0280
      8 C          62.0011   87.5650   10.8975 C.ar    1  UNL1        0.0680
      9 H          59.5731   87.8869    8.4175 H       1  UNL1        0.1424
     10 H          60.1679   86.4558    9.1287 H       1  UNL1        0.1424
     11 C          61.9955   86.0689   11.0066 C.2     1  UNL1        0.2507
     12 O          61.2852   85.2444    9.9743 O.2     1  UNL1       -0.2698
     13 N          62.7003   85.3975   12.1478 N.am    1  UNL1       -0.2802
     14 H          63.1664   85.9387   12.8253 H       1  UNL1        0.1552
     15 C          62.6947   83.9015   12.2569 C.ar    1  UNL1        0.0552
     16 C          63.1576   83.0636   11.1021 C.ar    1  UNL1        0.0468
     17 C          63.1521   81.5676   11.2112 C.ar    1  UNL1        0.1709
     18 F          63.6150   80.7297   10.0563 F       1  UNL1       -0.2017
     19 C          62.6837   80.9095   12.4751 C.ar    1  UNL1        0.1947
     20 F          62.6781   79.4135   12.5841 F       1  UNL1       -0.1994
     21 C          62.2207   81.7474   13.6299 C.ar    1  UNL1        0.1709
     22 F          61.7523   81.0893   14.8938 F       1  UNL1       -0.2017
     23 C          62.2263   83.2434   13.5208 C.ar    1  UNL1        0.0468
     24 S          63.8417   90.6843   12.5199 S.O2    1  UNL1        0.0655
     25 O          64.3890   91.3657   11.3009 O.2     1  UNL1       -0.1527
     26 O          63.2943   90.0029   13.7390 O.2     1  UNL1       -0.1527
     27 N          64.7592   91.4959   13.3856 N.3     1  UNL1       -0.1553
     28 C          65.6540   92.5293   12.7680 C.3     1  UNL1        0.0983
     29 C          66.5715   93.3409   13.6337 C.3     1  UNL1        0.0484
     30 C          66.5942   93.1192   15.1170 C.3     1  UNL1        0.1134
     31 O          67.5117   93.9309   15.9827 O.3     1  UNL1       -0.3844
     32 C          65.6995   92.0859   15.7346 C.3     1  UNL1        0.0484
     33 C          64.7819   91.2742   14.8689 C.3     1  UNL1        0.0983
     34 H          67.1088   94.7953   16.1595 H       1  UNL1        0.2103
@<TRIPOS>BOND
     1     1     2    1
     2     2     3   ar
     3     3     4   ar
     4     4     5    1
     5     4     6   ar
     6     6    24    1
     7    24    25    2
     8    24    26    2
     9    24    27    1
    10    27    28    1
    11    28    29    1
    12    29    30    1
    13    30    31    1
    14    30    32    1
    15    32    33    1
    16     6     7   ar
    17     7     8   ar
    18     8    11    1
    19    11    12    2
    20    11    13   am
    21    13    15    1
    22    15    16   ar
    23    16    17   ar
    24    17    18    1
    25    17    19   ar
    26    19    20    1
    27    19    21   ar
    28    21    22    1
    29    21    23   ar
    30     8     2   ar
    31    23    15   ar
    32    33    27    1
    33     1     9    1
    34     1    10    1
    35    31    34    1
    36    13    14    1
@<TRIPOS>MOLECULE
*****
 34 36 0 0 0
SMALL
GASTEIGER

@<TRIPOS>ATOM
      1 N          60.2902   87.3827    8.9610 N.pl3   1  UNL1       -0.3568
      2 C          61.1824   88.1961    9.8512 C.ar    1  UNL1        0.0482
      3 C          61.2123   89.6900    9.7199 C.ar    1  UNL1        0.0452
      4 C          62.1045   90.5034   10.6101 C.ar    1  UNL1        0.1598
      5 F          62.1344   91.9974   10.4788 F       1  UNL1       -0.2027
      6 C          62.9667   89.8229   11.6315 C.ar    1  UNL1        0.1497
      7 C          62.9368   88.3290   11.7628 C.ar    1  UNL1        0.0280
      8 C          62.0446   87.5156   10.8726 C.ar    1  UNL1        0.0680
      9 H          59.7243   87.8294    8.2905 H       1  UNL1        0.1424
     10 H          60.2706   86.4022    9.0471 H       1  UNL1        0.1424
     11 C          62.0147   86.0216   11.0039 C.2     1  UNL1        0.2507
     12 O          61.2388   85.1976   10.0196 O.2     1  UNL1       -0.2698
     13 N          62.7608   85.3517   12.1195 N.am    1  UNL1       -0.2802
     14 H          63.2701   85.8926   12.7656 H       1  UNL1        0.1552
     15 C          62.7309   83.8578   12.2509 C.ar    1  UNL1        0.0552
     16 C          62.3066   83.2269   13.5439 C.ar    1  UNL1        0.0468
     17 C          62.2767   81.7329   13.6752 C.ar    1  UNL1        0.1709
     18 F          61.8525   81.1020   14.9682 F       1  UNL1       -0.2017
     19 C          62.6712   80.8699   12.5135 C.ar    1  UNL1        0.1947
     20 F          62.6413   79.3760   12.6448 F       1  UNL1       -0.1994
     21 C          63.0954   81.5008   11.2204 C.ar    1  UNL1        0.1709
     22 F          63.4898   80.6378   10.0587 F       1  UNL1       -0.2017
     23 C          63.1253   82.9947   11.0891 C.ar    1  UNL1        0.0468
     24 S          63.8589   90.6363   12.5217 S.O2    1  UNL1        0.0655
     25 O          63.2623   89.9717   13.7269 O.2     1  UNL1       -0.1527
     26 O          64.4555   91.3009   11.3166 O.2     1  UNL1       -0.1527
     27 N          64.7510   91.4497   13.4119 N.3     1  UNL1       -0.1553
     28 C          64.7432   91.2193   14.8941 C.3     1  UNL1        0.0983
     29 C          65.6354   92.0327   15.7843 C.3     1  UNL1        0.0484
     30 C          66.5354   93.0765   15.1923 C.3     1  UNL1        0.1134
     31 O          67.4275   93.8898   16.0825 O.3     1  UNL1       -0.3844
     32 C          66.5432   93.3069   13.7102 C.3     1  UNL1        0.0484
     33 C          65.6510   92.4935   12.8200 C.3     1  UNL1        0.0983
     34 H          68.2255   93.3802   16.2932 H       1  UNL1        0.2103
@<TRIPOS>BOND
     1     1     2    1
     2     2     3   ar
     3     3     4   ar
     4     4     5    1
     5     4     6   ar
     6     6    24    1
     7    24    25    2
     8    24    26    2
     9    24    27    1
    10    27    28    1
    11    28    29    1
    12    29    30    1
    13    30    31    1
    14    30    32    1
    15    32    33    1
    16     6     7   ar
    17     7     8   ar
    18     8    11    1
    19    11    12    2
    20    11    13   am
    21    13    15    1
    22    15    16   ar
    23    16    17   ar
    24    17    18    1
    25    17    19   ar
    26    19    20    1
    27    19    21   ar
    28    21    22    1
    29    21    23   ar
    30     8     2   ar
    31    23    15   ar
    32    33    27    1
    33     1     9    1
    34     1    10    1
    35    31    34    1
    36    13    14    1
@<TRIPOS>MOLECULE
*****
 34 36 0 0 0
SMALL
GASTEIGER

@<TRIPOS>ATOM
      1 N          63.1591   88.8489   17.9007 N.pl3   1  UNL1       -0.3568
      2 C          63.1874   87.7499   16.8803 C.ar    1  UNL1        0.0482
      3 C          62.8060   86.3530   17.2718 C.ar    1  UNL1        0.0452
      4 C          62.8343   85.2540   16.2514 C.ar    1  UNL1        0.1598
      5 F          62.4529   83.8570   16.6429 F       1  UNL1       -0.2027
      6 C          63.2441   85.5518   14.8395 C.ar    1  UNL1        0.1497
      7 C          63.6254   86.9486   14.4480 C.ar    1  UNL1        0.0280
      8 C          63.5971   88.0477   15.4685 C.ar    1  UNL1        0.0680
      9 H          62.8902   88.6535   18.8274 H       1  UNL1        0.1424
     10 H          63.4094   89.7658   17.6438 H       1  UNL1        0.1424
     11 C          63.9785   89.4446   15.0770 C.2     1  UNL1        0.2507
     12 O          63.2076   90.6121   15.6179 O.2     1  UNL1       -0.2698
     13 N          65.1309   89.6740   14.1445 N.am    1  UNL1       -0.2802
     14 H          65.6368   88.9077   13.7894 H       1  UNL1        0.1552
     15 C          65.5123   91.0708   13.7529 C.ar    1  UNL1        0.0552
     16 C          66.3383   91.9109   14.6814 C.ar    1  UNL1        0.0468
     17 C          66.7197   93.3078   14.2898 C.ar    1  UNL1        0.1709
     18 F          67.5457   94.1479   15.2183 F       1  UNL1       -0.2017
     19 C          66.2752   93.8645   12.9698 C.ar    1  UNL1        0.1947
     20 F          66.6566   95.2614   12.5783 F       1  UNL1       -0.1994
     21 C          65.4492   93.0244   12.0414 C.ar    1  UNL1        0.1709
     22 F          65.0046   93.5812   10.7214 F       1  UNL1       -0.2017
     23 C          65.0678   91.6276   12.4329 C.ar    1  UNL1        0.0468
     24 S          63.2724   84.4527   13.8191 S.O2    1  UNL1        0.0655
     25 O          62.0732   85.0491   13.1435 O.2     1  UNL1       -0.1527
     26 O          64.4715   83.8563   14.4947 O.2     1  UNL1       -0.1527
     27 N          63.3007   83.3536   12.7986 N.3     1  UNL1       -0.1553
     28 C          63.9009   83.6009   11.4464 C.3     1  UNL1        0.0983
     29 C          63.9293   82.5019   10.4260 C.3     1  UNL1        0.0484
     30 C          63.3573   81.1555   10.7578 C.3     1  UNL1        0.1134
     31 O          63.3857   80.0564    9.7374 O.3     1  UNL1       -0.3844
     32 C          62.7571   80.9082   12.1100 C.3     1  UNL1        0.0484
     33 C          62.7288   82.0073   13.1304 C.3     1  UNL1        0.0983
     34 H          64.2611   79.6386    9.7364 H       1  UNL1        0.2103
@<TRIPOS>BOND
     1     1     2    1
     2     2     3   ar
     3     3     4   ar
     4     4     5    1
     5     4     6   ar
     6     6    24    1
     7    24    25    2
     8    24    26    2
     9    24    27    1
    10    27    28    1
    11    28    29    1
    12    29    30    1
    13    30    31    1
    14    30    32    1
    15    32    33    1
    16     6     7   ar
    17     7     8   ar
    18     8    11    1
    19    11    12    2
    20    11    13   am
    21    13    15    1
    22    15    16   ar
    23    16    17   ar
    24    17    18    1
    25    17    19   ar
    26    19    20    1
    27    19    21   ar
    28    21    22    1
    29    21    23   ar
    30     8     2   ar
    31    23    15   ar
    32    33    27    1
    33     1     9    1
    34     1    10    1
    35    31    34    1
    36    13    14    1
@<TRIPOS>MOLECULE
*****
 34 36 0 0 0
SMALL
GASTEIGER

@<TRIPOS>ATOM
      1 N          63.8064   91.0655   16.5154 N.pl3   1  UNL1       -0.3568
      2 C          63.7177   89.6422   16.0502 C.ar    1  UNL1        0.0482
      3 C          63.3259   88.5613   17.0136 C.ar    1  UNL1        0.0452
      4 C          63.2372   87.1380   16.5484 C.ar    1  UNL1        0.1598
      5 F          62.8453   86.0571   17.5119 F       1  UNL1       -0.2027
      6 C          63.5403   86.7956   15.1198 C.ar    1  UNL1        0.1497
      7 C          63.9321   87.8765   14.1565 C.ar    1  UNL1        0.0280
      8 C          64.0208   89.2998   14.6216 C.ar    1  UNL1        0.0680
      9 H          63.6075   91.2902   17.4530 H       1  UNL1        0.1424
     10 H          64.0636   91.7749   15.8831 H       1  UNL1        0.1424
     11 C          64.4127   90.3807   13.6582 C.2     1  UNL1        0.2507
     12 O          63.4889   90.7583   12.5384 O.2     1  UNL1       -0.2698
     13 N          65.7284   91.0839   13.8145 N.am    1  UNL1       -0.2802
     14 H          66.3347   90.8360   14.5495 H       1  UNL1        0.1552
     15 C          66.1203   92.1647   12.8512 C.ar    1  UNL1        0.0552
     16 C          65.9609   93.6059   13.2354 C.ar    1  UNL1        0.0468
     17 C          66.3528   94.6868   12.2719 C.ar    1  UNL1        0.1709
     18 F          66.1934   96.1279   12.6562 F       1  UNL1       -0.2017
     19 C          66.9041   94.3264   10.9243 C.ar    1  UNL1        0.1947
     20 F          67.2959   95.4073    9.9609 F       1  UNL1       -0.1994
     21 C          67.0635   92.8853   10.5400 C.ar    1  UNL1        0.1709
     22 F          67.6148   92.5250    9.1924 F       1  UNL1       -0.2017
     23 C          66.6716   91.8044   11.5034 C.ar    1  UNL1        0.0468
     24 S          63.4516   85.3724   14.6547 S.O2    1  UNL1        0.0655
     25 O          61.9632   85.4053   14.8377 O.2     1  UNL1       -0.1527
     26 O          64.9400   85.3394   14.4716 O.2     1  UNL1       -0.1527
     27 N          63.3629   83.9491   14.1895 N.3     1  UNL1       -0.1553
     28 C          64.3180   83.4382   13.1518 C.3     1  UNL1        0.0983
     29 C          64.2293   82.0150   12.6867 C.3     1  UNL1        0.0484
     30 C          63.1855   81.1025   13.2591 C.3     1  UNL1        0.1134
     31 O          63.0967   79.6792   12.7939 O.3     1  UNL1       -0.3844
     32 C          62.2303   81.6133   14.2967 C.3     1  UNL1        0.0484
     33 C          62.3190   83.0366   14.7619 C.3     1  UNL1        0.0983
     34 H          63.7596   79.1452   13.2589 H       1  UNL1        0.2103
@<TRIPOS>BOND
     1     1     2    1
     2     2     3   ar
     3     3     4   ar
     4     4     5    1
     5     4     6   ar
     6     6    24    1
     7    24    25    2
     8    24    26    2
     9    24    27    1
    10    27    28    1
    11    28    29    1
    12    29    30    1
    13    30    31    1
    14    30    32    1
    15    32    33    1
    16     6     7   ar
    17     7     8   ar
    18     8    11    1
    19    11    12    2
    20    11    13   am
    21    13    15    1
    22    15    16   ar
    23    16    17   ar
    24    17    18    1
    25    17    19   ar
    26    19    20    1
    27    19    21   ar
    28    21    22    1
    29    21    23   ar
    30     8     2   ar
    31    23    15   ar
    32    33    27    1
    33     1     9    1
    34     1    10    1
    35    31    34    1
    36    13    14    1
