@<TRIPOS>MOLECULE
*****
 27 28 0 0 0
SMALL
GASTEIGER

@<TRIPOS>ATOM
      1 C          63.0851   91.2200   10.7370 C.3     1  UNL1        0.0342
      2 C          63.8265   91.0088   12.0238 C.ar    1  UNL1        0.0118
      3 C          63.5339   89.8047   12.8691 C.ar    1  UNL1       -0.0013
      4 C          64.2753   89.5935   14.1558 C.ar    1  UNL1        0.0005
      5 C          65.3094   90.5864   14.5972 C.ar    1  UNL1       -0.0013
      6 C          65.6021   91.7904   13.7519 C.ar    1  UNL1        0.0118
      7 C          66.6362   92.7833   14.1933 C.3     1  UNL1        0.0342
      8 C          64.8606   92.0016   12.4652 C.ar    1  UNL1        0.1305
      9 C          63.9826   88.3894   15.0011 C.ar    1  UNL1        0.0136
     10 C          64.2948   87.0163   14.4842 C.ar    1  UNL1        0.0380
     11 C          64.0021   85.8123   15.3294 C.ar    1  UNL1        0.1469
     12 C          63.3973   85.9812   16.6917 C.ar    1  UNL1        0.0380
     13 C          63.0852   87.3543   17.2086 C.ar    1  UNL1        0.0145
     14 C          63.3779   88.5584   16.3633 C.ar    1  UNL1        0.0578
     15 CL         63.0658   89.9315   16.8803 Cl      1  UNL1       -0.0822
     16 O          64.3142   84.4392   14.8124 O.3     1  UNL1       -0.4045
     17 C          63.5776   83.9006   13.6220 C.3     1  UNL1        0.5753
     18 F          62.8409   83.3620   12.4314 F       1  UNL1       -0.1328
     19 F          64.8466   83.9313   12.8229 F       1  UNL1       -0.1328
     20 F          62.3086   83.8700   14.4210 F       1  UNL1       -0.1328
     21 O          65.1533   93.2057   11.6198 O.3     1  UNL1       -0.4761
     22 C          65.8807   93.0489   10.3174 C.3     1  UNL1        0.2058
     23 C          66.6240   94.2112    9.7288 C.3     1  UNL1        0.0532
     24 C          67.9902   94.0090    9.1436 C.3     1  UNL1        0.0455
     25 C          68.6684   92.6765    9.2649 C.2     1  UNL1        0.0505
     26 O          69.0828   91.9308    8.0311 O.co2   1  UNL1       -0.5492
     27 O          68.9321   92.0898   10.6199 O.co2   1  UNL1       -0.5492
@<TRIPOS>UNITY_ATOM_ATTR
26 1
charge -1
@<TRIPOS>BOND
     1     1     2    1
     2     2     3   ar
     3     3     4   ar
     4     4     9    1
     5     9    10   ar
     6    10    11   ar
     7    11    16    1
     8    16    17    1
     9    17    18    1
    10    17    19    1
    11    17    20    1
    12    11    12   ar
    13    12    13   ar
    14    13    14   ar
    15    14    15    1
    16     4     5   ar
    17     5     6   ar
    18     6     7    1
    19     6     8   ar
    20     8    21    1
    21    21    22    1
    22    22    23    1
    23    23    24    1
    24    24    25    1
    25    25    26   ar
    26    25    27   ar
    27     8     2   ar
    28    14     9   ar
@<TRIPOS>MOLECULE
*****
 27 28 0 0 0
SMALL
GASTEIGER

@<TRIPOS>ATOM
      1 C          66.8874   92.6595   14.0407 C.3     1  UNL1        0.0342
      2 C          65.7814   91.7202   13.6606 C.ar    1  UNL1        0.0118
      3 C          65.4478   90.5567   14.5466 C.ar    1  UNL1       -0.0013
      4 C          64.3418   89.6174   14.1664 C.ar    1  UNL1        0.0005
      5 C          63.5695   89.8415   12.9003 C.ar    1  UNL1       -0.0013
      6 C          63.9031   91.0049   12.0143 C.ar    1  UNL1        0.0118
      7 C          63.1307   91.2291   10.7480 C.3     1  UNL1        0.0342
      8 C          65.0090   91.9443   12.3944 C.ar    1  UNL1        0.1305
      9 C          64.0082   88.4539   15.0526 C.ar    1  UNL1        0.0136
     10 C          64.3402   87.0582   14.6145 C.ar    1  UNL1        0.0380
     11 C          64.0066   85.8948   15.5006 C.ar    1  UNL1        0.1469
     12 C          63.3411   86.1270   16.8247 C.ar    1  UNL1        0.0380
     13 C          63.0092   87.5227   17.2627 C.ar    1  UNL1        0.0145
     14 C          63.3427   88.6862   16.3766 C.ar    1  UNL1        0.0578
     15 CL         63.0108   90.0818   16.8146 Cl      1  UNL1       -0.0822
     16 O          64.3386   84.4991   15.0625 O.3     1  UNL1       -0.4045
     17 C          63.5866   83.8705   13.9270 C.3     1  UNL1        0.5753
     18 F          62.8346   83.2420   12.7914 F       1  UNL1       -0.1328
     19 F          62.4184   83.6266   14.8357 F       1  UNL1       -0.1328
     20 F          64.7548   84.1145   13.0183 F       1  UNL1       -0.1328
     21 O          65.3426   93.1077   11.5083 O.3     1  UNL1       -0.4761
     22 C          65.9903   92.8740   10.1757 C.3     1  UNL1        0.2058
     23 C          67.4762   93.0168   10.0286 C.3     1  UNL1        0.0532
     24 C          68.0486   94.2060    9.3157 C.3     1  UNL1        0.0455
     25 C          67.2211   95.4447    9.1397 C.2     1  UNL1        0.0505
     26 O          66.9998   96.3699   10.2994 O.co2   1  UNL1       -0.5492
     27 O          66.6150   95.7582    7.8039 O.co2   1  UNL1       -0.5492
@<TRIPOS>UNITY_ATOM_ATTR
26 1
charge -1
@<TRIPOS>BOND
     1     1     2    1
     2     2     3   ar
     3     3     4   ar
     4     4     9    1
     5     9    10   ar
     6    10    11   ar
     7    11    16    1
     8    16    17    1
     9    17    18    1
    10    17    19    1
    11    17    20    1
    12    11    12   ar
    13    12    13   ar
    14    13    14   ar
    15    14    15    1
    16     4     5   ar
    17     5     6   ar
    18     6     7    1
    19     6     8   ar
    20     8    21    1
    21    21    22    1
    22    22    23    1
    23    23    24    1
    24    24    25    1
    25    25    26   ar
    26    25    27   ar
    27     8     2   ar
    28    14     9   ar
@<TRIPOS>MOLECULE
*****
 27 28 0 0 0
SMALL
GASTEIGER

@<TRIPOS>ATOM
      1 C          63.1486   91.2095   10.7219 C.3     1  UNL1        0.0342
      2 C          63.8963   90.9896   12.0035 C.ar    1  UNL1        0.0118
      3 C          63.5653   89.8127   12.8725 C.ar    1  UNL1       -0.0013
      4 C          64.3131   89.5928   14.1541 C.ar    1  UNL1        0.0005
      5 C          65.3918   90.5498   14.5667 C.ar    1  UNL1       -0.0013
      6 C          65.7229   91.7267   13.6977 C.ar    1  UNL1        0.0118
      7 C          66.8017   92.6838   14.1103 C.3     1  UNL1        0.0342
      8 C          64.9751   91.9466   12.4161 C.ar    1  UNL1        0.1305
      9 C          63.9820   88.4158   15.0231 C.ar    1  UNL1        0.0136
     10 C          64.2573   87.0237   14.5371 C.ar    1  UNL1        0.0380
     11 C          63.9262   85.8467   15.4060 C.ar    1  UNL1        0.1469
     12 C          63.3199   86.0618   16.7611 C.ar    1  UNL1        0.0380
     13 C          63.0446   87.4539   17.2472 C.ar    1  UNL1        0.0145
     14 C          63.3757   88.6309   16.3781 C.ar    1  UNL1        0.0578
     15 CL         63.1004   90.0230   16.8642 Cl      1  UNL1       -0.0822
     16 O          64.2015   84.4546   14.9200 O.3     1  UNL1       -0.4045
     17 C          63.4150   83.8911   13.7738 C.3     1  UNL1        0.5753
     18 F          62.6284   83.3276   12.6276 F       1  UNL1       -0.1328
     19 F          62.2392   83.6849   14.6821 F       1  UNL1       -0.1328
     20 F          64.5908   84.0973   12.8656 F       1  UNL1       -0.1328
     21 O          65.3062   93.1236   11.5471 O.3     1  UNL1       -0.4761
     22 C          66.4861   93.0651   10.6227 C.3     1  UNL1        0.2058
     23 C          66.7054   94.1556    9.6165 C.3     1  UNL1        0.0532
     24 C          66.9602   95.5604   10.0765 C.3     1  UNL1        0.0455
     25 C          65.8297   96.3939   10.6031 C.2     1  UNL1        0.0505
     26 O          64.6891   96.7655    9.7027 O.co2   1  UNL1       -0.5492
     27 O          65.8400   96.8558   12.0302 O.co2   1  UNL1       -0.5492
@<TRIPOS>UNITY_ATOM_ATTR
26 1
charge -1
@<TRIPOS>BOND
     1     1     2    1
     2     2     3   ar
     3     3     4   ar
     4     4     9    1
     5     9    10   ar
     6    10    11   ar
     7    11    16    1
     8    16    17    1
     9    17    18    1
    10    17    19    1
    11    17    20    1
    12    11    12   ar
    13    12    13   ar
    14    13    14   ar
    15    14    15    1
    16     4     5   ar
    17     5     6   ar
    18     6     7    1
    19     6     8   ar
    20     8    21    1
    21    21    22    1
    22    22    23    1
    23    23    24    1
    24    24    25    1
    25    25    26   ar
    26    25    27   ar
    27     8     2   ar
    28    14     9   ar
@<TRIPOS>MOLECULE
*****
 27 28 0 0 0
SMALL
GASTEIGER

@<TRIPOS>ATOM
      1 C          64.1568   90.1523   14.7215 C.3     1  UNL1        0.0342
      2 C          63.8849   90.3958   13.2665 C.ar    1  UNL1        0.0118
      3 C          62.9888   89.4648   12.5049 C.ar    1  UNL1       -0.0013
      4 C          62.7170   89.7083   11.0500 C.ar    1  UNL1        0.0005
      5 C          63.3413   90.8828   10.3567 C.ar    1  UNL1       -0.0013
      6 C          64.2374   91.8138   11.1183 C.ar    1  UNL1        0.0118
      7 C          64.8618   92.9884   10.4250 C.3     1  UNL1        0.0342
      8 C          64.5093   91.5703   12.5732 C.ar    1  UNL1        0.1305
      9 C          61.8208   88.7772   10.2884 C.ar    1  UNL1        0.0136
     10 C          62.3323   87.4381    9.8464 C.ar    1  UNL1        0.0380
     11 C          61.4362   86.5071    9.0848 C.ar    1  UNL1        0.1469
     12 C          60.0285   86.9150    8.7652 C.ar    1  UNL1        0.0380
     13 C          59.5170   88.2540    9.2071 C.ar    1  UNL1        0.0145
     14 C          60.4132   89.1851    9.9688 C.ar    1  UNL1        0.0578
     15 CL         59.9017   90.5242   10.4107 Cl      1  UNL1       -0.0822
     16 O          61.9477   85.1680    8.6428 O.3     1  UNL1       -0.4045
     17 C          62.4476   84.9815    7.2410 C.3     1  UNL1        0.5753
     18 F          62.9474   84.7950    5.8390 F       1  UNL1       -0.1328
     19 F          63.8131   85.4320    7.6679 F       1  UNL1       -0.1328
     20 F          61.0821   84.5310    6.8140 F       1  UNL1       -0.1328
     21 O          65.4054   92.5014   13.3349 O.3     1  UNL1       -0.4761
     22 C          66.8728   92.5490   13.0272 C.3     1  UNL1        0.2058
     23 C          67.8229   91.6516   13.7633 C.3     1  UNL1        0.0532
     24 C          67.8711   91.6785   15.2623 C.3     1  UNL1        0.0455
     25 C          67.3390   92.8660   16.0086 C.2     1  UNL1        0.0505
     26 O          66.0062   92.7867   16.6920 O.co2   1  UNL1       -0.5492
     27 O          68.1400   94.1327   16.0714 O.co2   1  UNL1       -0.5492
@<TRIPOS>UNITY_ATOM_ATTR
26 1
charge -1
@<TRIPOS>BOND
     1     1     2    1
     2     2     3   ar
     3     3     4   ar
     4     4     9    1
     5     9    10   ar
     6    10    11   ar
     7    11    16    1
     8    16    17    1
     9    17    18    1
    10    17    19    1
    11    17    20    1
    12    11    12   ar
    13    12    13   ar
    14    13    14   ar
    15    14    15    1
    16     4     5   ar
    17     5     6   ar
    18     6     7    1
    19     6     8   ar
    20     8    21    1
    21    21    22    1
    22    22    23    1
    23    23    24    1
    24    24    25    1
    25    25    26   ar
    26    25    27   ar
    27     8     2   ar
    28    14     9   ar
@<TRIPOS>MOLECULE
*****
 27 28 0 0 0
SMALL
GASTEIGER

@<TRIPOS>ATOM
      1 C          61.9774   90.0793   10.4669 C.3     1  UNL1        0.0342
      2 C          61.6879   88.6283   10.2203 C.ar    1  UNL1        0.0118
      3 C          62.4241   87.5746   10.9934 C.ar    1  UNL1       -0.0013
      4 C          62.1345   86.1236   10.7468 C.ar    1  UNL1        0.0005
      5 C          61.1088   85.7263    9.7270 C.ar    1  UNL1       -0.0013
      6 C          60.3725   86.7800    8.9540 C.ar    1  UNL1        0.0118
      7 C          59.3467   86.3827    7.9342 C.3     1  UNL1        0.0342
      8 C          60.6621   88.2310    9.2006 C.ar    1  UNL1        0.1305
      9 C          62.8709   85.0700   11.5199 C.ar    1  UNL1        0.0136
     10 C          62.8734   85.1044   13.0195 C.ar    1  UNL1        0.0380
     11 C          63.6096   84.0508   13.7927 C.ar    1  UNL1        0.1469
     12 C          64.3434   82.9627   13.0662 C.ar    1  UNL1        0.0380
     13 C          64.3409   82.9283   11.5666 C.ar    1  UNL1        0.0145
     14 C          63.6046   83.9819   10.7935 C.ar    1  UNL1        0.0578
     15 CL         63.6021   83.9475    9.2939 Cl      1  UNL1       -0.0822
     16 O          63.6121   84.0852   15.2923 O.3     1  UNL1       -0.4045
     17 C          63.5276   85.3983   16.0125 C.3     1  UNL1        0.5753
     18 F          63.4432   86.7114   16.7327 F       1  UNL1       -0.1328
     19 F          62.1671   85.0295   16.5251 F       1  UNL1       -0.1328
     20 F          64.8882   85.7670   15.4998 F       1  UNL1       -0.1328
     21 O          59.9258   89.2846    8.4274 O.3     1  UNL1       -0.4761
     22 C          59.7565   89.1452    6.9435 C.3     1  UNL1        0.2058
     23 C          58.8651   90.0936    6.1980 C.3     1  UNL1        0.0532
     24 C          59.4529   91.0512    5.2043 C.3     1  UNL1        0.0455
     25 C          58.5595   91.9878    4.4461 C.2     1  UNL1        0.0505
     26 O          57.1391   92.1888    4.8844 O.co2   1  UNL1       -0.5492
     27 O          59.0865   92.7233    3.2498 O.co2   1  UNL1       -0.5492
@<TRIPOS>UNITY_ATOM_ATTR
26 1
charge -1
@<TRIPOS>BOND
     1     1     2    1
     2     2     3   ar
     3     3     4   ar
     4     4     9    1
     5     9    10   ar
     6    10    11   ar
     7    11    16    1
     8    16    17    1
     9    17    18    1
    10    17    19    1
    11    17    20    1
    12    11    12   ar
    13    12    13   ar
    14    13    14   ar
    15    14    15    1
    16     4     5   ar
    17     5     6   ar
    18     6     7    1
    19     6     8   ar
    20     8    21    1
    21    21    22    1
    22    22    23    1
    23    23    24    1
    24    24    25    1
    25    25    26   ar
    26    25    27   ar
    27     8     2   ar
    28    14     9   ar
@<TRIPOS>MOLECULE
*****
 27 28 0 0 0
SMALL
GASTEIGER

@<TRIPOS>ATOM
      1 C          59.4804   86.3619    7.9065 C.3     1  UNL1        0.0342
      2 C          60.4757   86.7568    8.9570 C.ar    1  UNL1        0.0118
      3 C          61.2013   85.7010    9.7372 C.ar    1  UNL1       -0.0013
      4 C          62.1966   86.0958   10.7877 C.ar    1  UNL1        0.0005
      5 C          62.4663   87.5464   11.0580 C.ar    1  UNL1       -0.0013
      6 C          61.7406   88.6021   10.2777 C.ar    1  UNL1        0.0118
      7 C          62.0102   90.0528   10.5480 C.3     1  UNL1        0.0342
      8 C          60.7453   88.2073    9.2273 C.ar    1  UNL1        0.1305
      9 C          62.9223   85.0400   11.5679 C.ar    1  UNL1        0.0136
     10 C          62.9401   85.0943   13.0668 C.ar    1  UNL1        0.0380
     11 C          63.6657   84.0386   13.8470 C.ar    1  UNL1        0.1469
     12 C          64.3736   82.9284   13.1283 C.ar    1  UNL1        0.0380
     13 C          64.3558   82.8740   11.6294 C.ar    1  UNL1        0.0145
     14 C          63.6302   83.9299   10.8492 C.ar    1  UNL1        0.0578
     15 CL         63.6124   83.8755    9.3503 Cl      1  UNL1       -0.0822
     16 O          63.6835   84.0929   15.3459 O.3     1  UNL1       -0.4045
     17 C          63.5537   85.4109   16.0502 C.3     1  UNL1        0.5753
     18 F          63.4239   86.7289   16.7546 F       1  UNL1       -0.1328
     19 F          64.8945   85.8257   15.5210 F       1  UNL1       -0.1328
     20 F          62.2129   84.9960   16.5795 F       1  UNL1       -0.1328
     21 O          60.0196   89.2632    8.4470 O.3     1  UNL1       -0.4761
     22 C          59.7269   89.0516    6.9912 C.3     1  UNL1        0.2058
     23 C          58.8684   90.0322    6.2486 C.3     1  UNL1        0.0532
     24 C          59.4722   90.9065    5.1899 C.3     1  UNL1        0.0455
     25 C          58.6681   92.0213    4.5893 C.2     1  UNL1        0.0505
     26 O          59.3173   92.9911    3.6469 O.co2   1  UNL1       -0.5492
     27 O          57.2147   92.1662    4.9310 O.co2   1  UNL1       -0.5492
@<TRIPOS>UNITY_ATOM_ATTR
26 1
charge -1
@<TRIPOS>BOND
     1     1     2    1
     2     2     3   ar
     3     3     4   ar
     4     4     9    1
     5     9    10   ar
     6    10    11   ar
     7    11    16    1
     8    16    17    1
     9    17    18    1
    10    17    19    1
    11    17    20    1
    12    11    12   ar
    13    12    13   ar
    14    13    14   ar
    15    14    15    1
    16     4     5   ar
    17     5     6   ar
    18     6     7    1
    19     6     8   ar
    20     8    21    1
    21    21    22    1
    22    22    23    1
    23    23    24    1
    24    24    25    1
    25    25    26   ar
    26    25    27   ar
    27     8     2   ar
    28    14     9   ar
@<TRIPOS>MOLECULE
*****
 27 28 0 0 0
SMALL
GASTEIGER

@<TRIPOS>ATOM
      1 C          60.5919   85.6666    7.4296 C.3     1  UNL1        0.0342
      2 C          60.7649   86.2267    8.8103 C.ar    1  UNL1        0.0118
      3 C          61.6263   85.5104    9.8078 C.ar    1  UNL1       -0.0013
      4 C          61.7993   86.0705   11.1885 C.ar    1  UNL1        0.0005
      5 C          61.1109   87.3469   11.5717 C.ar    1  UNL1       -0.0013
      6 C          60.2496   88.0632   10.5743 C.ar    1  UNL1        0.0118
      7 C          59.5611   89.3397   10.9575 C.3     1  UNL1        0.0342
      8 C          60.0766   87.5031    9.1936 C.ar    1  UNL1        0.1305
      9 C          62.6607   85.3542   12.1860 C.ar    1  UNL1        0.0136
     10 C          62.6183   83.8575   12.2756 C.ar    1  UNL1        0.0380
     11 C          63.4796   83.1411   13.2730 C.ar    1  UNL1        0.1469
     12 C          64.3835   83.9215   14.1808 C.ar    1  UNL1        0.0380
     13 C          64.4259   85.4182   14.0913 C.ar    1  UNL1        0.0145
     14 C          63.5645   86.1346   13.0938 C.ar    1  UNL1        0.0578
     15 CL         63.6069   87.6313   13.0042 Cl      1  UNL1       -0.0822
     16 O          63.4372   81.6444   13.3625 O.3     1  UNL1       -0.4045
     17 C          62.1343   80.9447   13.6128 C.3     1  UNL1        0.5753
     18 F          60.8313   80.2449   13.8632 F       1  UNL1       -0.1328
     19 F          62.4269   79.9972   12.4874 F       1  UNL1       -0.1328
     20 F          61.8417   81.8921   14.7383 F       1  UNL1       -0.1328
     21 O          59.2152   88.2194    8.1961 O.3     1  UNL1       -0.4761
     22 C          59.7993   89.3084    7.3459 C.3     1  UNL1        0.2058
     23 C          59.0709   89.7756    6.1207 C.3     1  UNL1        0.0532
     24 C          59.6658   90.8490    5.2581 C.3     1  UNL1        0.0455
     25 C          58.8095   91.9801    4.7708 C.2     1  UNL1        0.0505
     26 O          57.3316   91.9664    5.0272 O.co2   1  UNL1       -0.5492
     27 O          59.4311   93.1249    4.0272 O.co2   1  UNL1       -0.5492
@<TRIPOS>UNITY_ATOM_ATTR
26 1
charge -1
@<TRIPOS>BOND
     1     1     2    1
     2     2     3   ar
     3     3     4   ar
     4     4     9    1
     5     9    10   ar
     6    10    11   ar
     7    11    16    1
     8    16    17    1
     9    17    18    1
    10    17    19    1
    11    17    20    1
    12    11    12   ar
    13    12    13   ar
    14    13    14   ar
    15    14    15    1
    16     4     5   ar
    17     5     6   ar
    18     6     7    1
    19     6     8   ar
    20     8    21    1
    21    21    22    1
    22    22    23    1
    23    23    24    1
    24    24    25    1
    25    25    26   ar
    26    25    27   ar
    27     8     2   ar
    28    14     9   ar
@<TRIPOS>MOLECULE
*****
 27 28 0 0 0
SMALL
GASTEIGER

@<TRIPOS>ATOM
      1 C          62.0556   87.0265   10.7014 C.3     1  UNL1        0.0342
      2 C          62.8172   87.0469   11.9935 C.ar    1  UNL1        0.0118
      3 C          63.2100   88.3558   12.6120 C.ar    1  UNL1       -0.0013
      4 C          63.9716   88.3762   13.9041 C.ar    1  UNL1        0.0005
      5 C          64.3404   87.0877   14.5777 C.ar    1  UNL1       -0.0013
      6 C          63.9477   85.7789   13.9592 C.ar    1  UNL1        0.0118
      7 C          64.3166   84.4903   14.6328 C.3     1  UNL1        0.0342
      8 C          63.1861   85.7585   12.6671 C.ar    1  UNL1        0.1305
      9 C          64.3643   89.6851   14.5226 C.ar    1  UNL1        0.0136
     10 C          65.3433   90.5812   13.8236 C.ar    1  UNL1        0.0380
     11 C          65.7360   91.8901   14.4420 C.ar    1  UNL1        0.1469
     12 C          65.1497   92.3030   15.7596 C.ar    1  UNL1        0.0380
     13 C          64.1708   91.4069   16.4586 C.ar    1  UNL1        0.0145
     14 C          63.7780   90.0979   15.8401 C.ar    1  UNL1        0.0578
     15 CL         62.7991   89.2019   16.5392 Cl      1  UNL1       -0.0822
     16 O          66.7150   92.7861   13.7430 O.3     1  UNL1       -0.4045
     17 C          67.0963   92.5135   12.3181 C.3     1  UNL1        0.5753
     18 F          67.4776   92.2408   10.8932 F       1  UNL1       -0.1328
     19 F          68.2603   91.6917   12.7869 F       1  UNL1       -0.1328
     20 F          65.9323   93.3352   11.8494 F       1  UNL1       -0.1328
     21 O          62.7934   84.4495   12.0485 O.3     1  UNL1       -0.4761
     22 C          63.7671   83.7075   11.1817 C.3     1  UNL1        0.2058
     23 C          63.9981   82.2414   11.3985 C.3     1  UNL1        0.0532
     24 C          62.8675   81.3616   11.8434 C.3     1  UNL1        0.0455
     25 C          62.6197   81.1411   13.3063 C.2     1  UNL1        0.0505
     26 O          61.2164   81.1288   13.8357 O.co2   1  UNL1       -0.5492
     27 O          63.7754   80.9330   14.2397 O.co2   1  UNL1       -0.5492
@<TRIPOS>UNITY_ATOM_ATTR
26 1
charge -1
@<TRIPOS>BOND
     1     1     2    1
     2     2     3   ar
     3     3     4   ar
     4     4     9    1
     5     9    10   ar
     6    10    11   ar
     7    11    16    1
     8    16    17    1
     9    17    18    1
    10    17    19    1
    11    17    20    1
    12    11    12   ar
    13    12    13   ar
    14    13    14   ar
    15    14    15    1
    16     4     5   ar
    17     5     6   ar
    18     6     7    1
    19     6     8   ar
    20     8    21    1
    21    21    22    1
    22    22    23    1
    23    23    24    1
    24    24    25    1
    25    25    26   ar
    26    25    27   ar
    27     8     2   ar
    28    14     9   ar
@<TRIPOS>MOLECULE
*****
 27 28 0 0 0
SMALL
GASTEIGER

@<TRIPOS>ATOM
      1 C          60.1907   88.7003   10.7048 C.3     1  UNL1        0.0342
      2 C          61.0397   87.4807   10.5010 C.ar    1  UNL1        0.0118
      3 C          61.6026   86.7523   11.6852 C.ar    1  UNL1       -0.0013
      4 C          62.4517   85.5327   11.4815 C.ar    1  UNL1        0.0005
      5 C          62.7379   85.0414   10.0934 C.ar    1  UNL1       -0.0013
      6 C          62.1750   85.7698    8.9091 C.ar    1  UNL1        0.0118
      7 C          62.4612   85.2786    7.5210 C.3     1  UNL1        0.0342
      8 C          61.3259   86.9894    9.1129 C.ar    1  UNL1        0.1305
      9 C          63.0146   84.8043   12.6658 C.ar    1  UNL1        0.0136
     10 C          62.8333   83.3204   12.7893 C.ar    1  UNL1        0.0380
     11 C          63.3962   82.5920   13.9736 C.ar    1  UNL1        0.1469
     12 C          64.1404   83.3475   15.0345 C.ar    1  UNL1        0.0380
     13 C          64.3217   84.8313   14.9110 C.ar    1  UNL1        0.0145
     14 C          63.7588   85.5597   13.7267 C.ar    1  UNL1        0.0578
     15 CL         63.9401   87.0436   13.6032 Cl      1  UNL1       -0.0822
     16 O          63.2149   81.1081   14.0970 O.3     1  UNL1       -0.4045
     17 C          61.8552   80.5010   13.9161 C.3     1  UNL1        0.5753
     18 F          60.4955   79.8940   13.7353 F       1  UNL1       -0.1328
     19 F          62.4454   79.4423   13.0326 F       1  UNL1       -0.1328
     20 F          61.2650   81.5597   14.7997 F       1  UNL1       -0.1328
     21 O          60.7630   87.7178    7.9286 O.3     1  UNL1       -0.4761
     22 C          59.2966   87.6343    7.6243 C.3     1  UNL1        0.2058
     23 C          58.6040   88.7813    6.9501 C.3     1  UNL1        0.0532
     24 C          59.4049   89.8087    6.2064 C.3     1  UNL1        0.0455
     25 C          58.7072   90.8959    5.4441 C.2     1  UNL1        0.0505
     26 O          57.2088   90.9652    5.4385 O.co2   1  UNL1       -0.5492
     27 O          59.5078   91.9140    4.6874 O.co2   1  UNL1       -0.5492
@<TRIPOS>UNITY_ATOM_ATTR
26 1
charge -1
@<TRIPOS>BOND
     1     1     2    1
     2     2     3   ar
     3     3     4   ar
     4     4     9    1
     5     9    10   ar
     6    10    11   ar
     7    11    16    1
     8    16    17    1
     9    17    18    1
    10    17    19    1
    11    17    20    1
    12    11    12   ar
    13    12    13   ar
    14    13    14   ar
    15    14    15    1
    16     4     5   ar
    17     5     6   ar
    18     6     7    1
    19     6     8   ar
    20     8    21    1
    21    21    22    1
    22    22    23    1
    23    23    24    1
    24    24    25    1
    25    25    26   ar
    26    25    27   ar
    27     8     2   ar
    28    14     9   ar
