@<TRIPOS>MOLECULE
*****
 34 37 0 0 0
SMALL
GASTEIGER

@<TRIPOS>ATOM
      1 N          62.9730   90.6536   11.6048 N.am    1  UNL1       -0.2438
      2 C          63.5696   91.2455   10.3622 C.3     1  UNL1        0.1009
      3 C          64.7086   92.2159   10.4659 C.3     1  UNL1        0.0661
      4 C          65.2512   92.5945   11.8121 C.3     1  UNL1        0.1578
      5 O          64.6547   92.0027   13.0546 O.3     1  UNL1       -0.4375
      6 C          63.5156   91.0322   12.9510 C.2     1  UNL1        0.4051
      7 O          62.9191   90.4404   14.1935 O.2     1  UNL1       -0.2262
      8 C          66.1438   93.4170   10.9307 C.ar    1  UNL1        0.0137
      9 C          65.9683   94.9052   10.8655 C.ar    1  UNL1       -0.0010
     10 C          66.8610   95.7277    9.9840 C.ar    1  UNL1       -0.0002
     11 C          67.9290   95.0619    9.1680 C.ar    1  UNL1       -0.0000
     12 C          68.1045   93.5737    9.2333 C.ar    1  UNL1       -0.0002
     13 C          67.2119   92.7512   10.1146 C.ar    1  UNL1       -0.0010
     14 C          61.8340   89.6832   11.5012 C.3     1  UNL1        0.1011
     15 C          60.4419   90.1843   11.2543 C.3     1  UNL1        0.0265
     16 C          62.5931   85.2686   11.9308 C.ar    1  UNL1        0.0001
     17 C          61.5380   85.7595   10.9844 C.ar    1  UNL1       -0.0003
     18 C          61.2850   87.2310   10.8411 C.ar    1  UNL1       -0.0027
     19 C          62.0870   88.2117   11.6444 C.ar    1  UNL1       -0.0042
     20 C          63.1421   87.7207   12.5908 C.ar    1  UNL1       -0.0027
     21 C          63.3951   86.2491   12.7340 C.ar    1  UNL1       -0.0003
     22 C          63.6134   81.1488   14.9285 C.3     1  UNL1        0.0521
     23 C          63.3563   81.7371   13.5729 C.ar    1  UNL1        0.0590
     24 C          63.1032   83.2086   13.4297 C.ar    1  UNL1        0.0147
     25 C          62.8461   83.7970   12.0740 C.ar    1  UNL1        0.0023
     26 C          62.8419   82.9138   10.8617 C.ar    1  UNL1        0.0147
     27 C          63.0949   81.4422   11.0049 C.ar    1  UNL1        0.0590
     28 C          63.0908   80.5590    9.7925 C.3     1  UNL1        0.0521
     29 N          63.3521   80.8539   12.3605 N.ar    1  UNL1       -0.2540
     30 C          66.1038   93.2587   12.8522 C.3     1  UNL1        0.0471
     31 C          66.5709   92.4817   14.0472 C.3     1  UNL1        0.0357
     32 C          68.0281   92.1678   14.2150 C.3     1  UNL1        0.1373
     33 O          68.8223   91.6494   13.0528 O.3     1  UNL1       -0.3820
     34 H          68.4947   90.7711   12.8034 H       1  UNL1        0.2104
@<TRIPOS>BOND
     1    22    23    1
     2    23    24   ar
     3    24    25   ar
     4    25    16    1
     5    16    17   ar
     6    17    18   ar
     7    18    19   ar
     8    19    14    1
     9    14    15    1
    10    14     1    1
    11     1     2    1
    12     2     3    1
    13     3     4    1
    14     4    30    1
    15    30    31    1
    16    31    32    1
    17    32    33    1
    18     4     8    1
    19     8     9   ar
    20     9    10   ar
    21    10    11   ar
    22    11    12   ar
    23    12    13   ar
    24     4     5    1
    25     5     6    1
    26     6     7    2
    27    19    20   ar
    28    20    21   ar
    29    25    26   ar
    30    26    27   ar
    31    27    28    1
    32    27    29   ar
    33    29    23   ar
    34    21    16   ar
    35     6     1   am
    36    13     8   ar
    37    33    34    1
@<TRIPOS>MOLECULE
*****
 34 37 0 0 0
SMALL
GASTEIGER

@<TRIPOS>ATOM
      1 N          62.9678   90.6502   11.6010 N.am    1  UNL1       -0.2438
      2 C          63.5623   91.2419   10.3574 C.3     1  UNL1        0.1009
      3 C          64.7022   92.2116   10.4591 C.3     1  UNL1        0.0661
      4 C          65.2476   92.5896   11.8043 C.3     1  UNL1        0.1578
      5 O          64.6531   91.9979   13.0478 O.3     1  UNL1       -0.4375
      6 C          63.5132   91.0282   12.9462 C.2     1  UNL1        0.4051
      7 O          62.9187   90.4365   14.1898 O.2     1  UNL1       -0.2262
      8 C          66.1390   93.4117   10.9214 C.ar    1  UNL1        0.0137
      9 C          67.2173   92.7476   10.1175 C.ar    1  UNL1       -0.0010
     10 C          68.1087   93.5698    9.2346 C.ar    1  UNL1       -0.0002
     11 C          67.9218   95.0560    9.1557 C.ar    1  UNL1       -0.0000
     12 C          66.8436   95.7200    9.9596 C.ar    1  UNL1       -0.0002
     13 C          65.9522   94.8979   10.8425 C.ar    1  UNL1       -0.0010
     14 C          61.8279   89.6805   11.4993 C.3     1  UNL1        0.1011
     15 C          60.4355   90.1827   11.2563 C.3     1  UNL1        0.0265
     16 C          62.5856   85.2651   11.9233 C.ar    1  UNL1        0.0001
     17 C          63.3967   86.2450   12.7183 C.ar    1  UNL1       -0.0003
     18 C          63.1441   87.7168   12.5769 C.ar    1  UNL1       -0.0027
     19 C          62.0804   88.2087   11.6406 C.ar    1  UNL1       -0.0042
     20 C          61.2693   87.2289   10.8457 C.ar    1  UNL1       -0.0027
     21 C          61.5219   85.7570   10.9870 C.ar    1  UNL1       -0.0003
     22 C          63.1032   80.5616    9.7765 C.3     1  UNL1        0.0521
     23 C          63.0970   81.4415   10.9912 C.ar    1  UNL1        0.0590
     24 C          62.8444   82.9133   10.8499 C.ar    1  UNL1        0.0147
     25 C          62.8381   83.7932   12.0647 C.ar    1  UNL1        0.0023
     26 C          63.0845   83.2014   13.4208 C.ar    1  UNL1        0.0147
     27 C          63.3370   81.7296   13.5621 C.ar    1  UNL1        0.0590
     28 C          63.5834   81.1377   14.9182 C.3     1  UNL1        0.0521
     29 N          63.3433   80.8497   12.3473 N.ar    1  UNL1       -0.2540
     30 C          66.1026   93.2530   12.8429 C.3     1  UNL1        0.0471
     31 C          66.5893   92.4696   14.0258 C.3     1  UNL1        0.0357
     32 C          68.0551   92.1990   14.1946 C.3     1  UNL1        0.1373
     33 O          68.8542   91.6549   13.0477 O.3     1  UNL1       -0.3820
     34 H          68.5472   90.7596   12.8357 H       1  UNL1        0.2104
@<TRIPOS>BOND
     1    22    23    1
     2    23    24   ar
     3    24    25   ar
     4    25    16    1
     5    16    17   ar
     6    17    18   ar
     7    18    19   ar
     8    19    14    1
     9    14    15    1
    10    14     1    1
    11     1     2    1
    12     2     3    1
    13     3     4    1
    14     4    30    1
    15    30    31    1
    16    31    32    1
    17    32    33    1
    18     4     8    1
    19     8     9   ar
    20     9    10   ar
    21    10    11   ar
    22    11    12   ar
    23    12    13   ar
    24     4     5    1
    25     5     6    1
    26     6     7    2
    27    19    20   ar
    28    20    21   ar
    29    25    26   ar
    30    26    27   ar
    31    27    28    1
    32    27    29   ar
    33    29    23   ar
    34    21    16   ar
    35     6     1   am
    36    13     8   ar
    37    33    34    1
@<TRIPOS>MOLECULE
*****
 34 37 0 0 0
SMALL
GASTEIGER

@<TRIPOS>ATOM
      1 N          63.6336   87.5563   15.0849 N.am    1  UNL1       -0.2438
      2 C          63.8708   87.1365   13.6644 C.3     1  UNL1        0.1009
      3 C          63.7736   85.6889   13.2839 C.3     1  UNL1        0.0661
      4 C          63.4392   84.6609   14.3238 C.3     1  UNL1        0.1578
      5 O          63.2021   85.0806   15.7442 O.3     1  UNL1       -0.4375
      6 C          63.2993   86.5283   16.1248 C.2     1  UNL1        0.4051
      7 O          63.0621   86.9479   17.5452 O.2     1  UNL1       -0.2262
      8 C          63.5768   83.7777   13.1192 C.ar    1  UNL1        0.0137
      9 C          62.8137   84.0929   11.8670 C.ar    1  UNL1       -0.0010
     10 C          62.9513   83.2096   10.6624 C.ar    1  UNL1       -0.0002
     11 C          63.8521   82.0112   10.7102 C.ar    1  UNL1       -0.0000
     12 C          64.6153   81.6960   11.9624 C.ar    1  UNL1       -0.0002
     13 C          64.4777   82.5792   13.1670 C.ar    1  UNL1       -0.0010
     14 C          63.7309   89.0039   15.4653 C.3     1  UNL1        0.1011
     15 C          63.2018   89.4684   16.7898 C.3     1  UNL1        0.0265
     16 C          65.6097   91.9533   12.6332 C.ar    1  UNL1        0.0001
     17 C          64.2693   91.3588   12.3167 C.ar    1  UNL1       -0.0003
     18 C          63.6431   90.3757   13.2607 C.ar    1  UNL1       -0.0027
     19 C          64.3571   89.9870   14.5213 C.ar    1  UNL1       -0.0042
     20 C          65.6974   90.5815   14.8378 C.ar    1  UNL1       -0.0027
     21 C          66.3237   91.5647   13.8937 C.ar    1  UNL1       -0.0003
     22 C          66.3422   96.8558   11.0746 C.3     1  UNL1        0.0521
     23 C          66.6022   95.3877   10.9098 C.ar    1  UNL1        0.0590
     24 C          65.9760   94.4046   11.8538 C.ar    1  UNL1        0.0147
     25 C          66.2359   92.9365   11.6891 C.ar    1  UNL1        0.0023
     26 C          67.1221   92.4515   10.5803 C.ar    1  UNL1        0.0147
     27 C          67.7483   93.4347    9.6362 C.ar    1  UNL1        0.0590
     28 C          68.6345   92.9498    8.5274 C.3     1  UNL1        0.0521
     29 N          67.4883   94.9028    9.8010 N.ar    1  UNL1       -0.2540
     30 C          63.1526   83.3262   14.9454 C.3     1  UNL1        0.0471
     31 C          61.7734   82.7420   14.8650 C.3     1  UNL1        0.0357
     32 C          61.5754   81.3584   14.3204 C.3     1  UNL1        0.1373
     33 O          60.2111   80.7351   14.3344 O.3     1  UNL1       -0.3820
     34 H          59.9313   80.5900   15.2518 H       1  UNL1        0.2104
@<TRIPOS>BOND
     1    22    23    1
     2    23    24   ar
     3    24    25   ar
     4    25    16    1
     5    16    17   ar
     6    17    18   ar
     7    18    19   ar
     8    19    14    1
     9    14    15    1
    10    14     1    1
    11     1     2    1
    12     2     3    1
    13     3     4    1
    14     4    30    1
    15    30    31    1
    16    31    32    1
    17    32    33    1
    18     4     8    1
    19     8     9   ar
    20     9    10   ar
    21    10    11   ar
    22    11    12   ar
    23    12    13   ar
    24     4     5    1
    25     5     6    1
    26     6     7    2
    27    19    20   ar
    28    20    21   ar
    29    25    26   ar
    30    26    27   ar
    31    27    28    1
    32    27    29   ar
    33    29    23   ar
    34    21    16   ar
    35     6     1   am
    36    13     8   ar
    37    33    34    1
@<TRIPOS>MOLECULE
*****
 34 37 0 0 0
SMALL
GASTEIGER

@<TRIPOS>ATOM
      1 N          63.6506   87.5591   15.0687 N.am    1  UNL1       -0.2438
      2 C          63.8821   87.1379   13.6478 C.3     1  UNL1        0.1009
      3 C          63.7854   85.6896   13.2696 C.3     1  UNL1        0.0661
      4 C          63.4573   84.6624   14.3124 C.3     1  UNL1        0.1578
      5 O          63.2258   85.0836   15.7333 O.3     1  UNL1       -0.4375
      6 C          63.3224   86.5320   16.1115 C.2     1  UNL1        0.4051
      7 O          63.0910   86.9532   17.5324 O.2     1  UNL1       -0.2262
      8 C          63.5909   83.7778   13.1084 C.ar    1  UNL1        0.0137
      9 C          62.8218   84.0902   11.8591 C.ar    1  UNL1       -0.0010
     10 C          62.9554   83.2056   10.6551 C.ar    1  UNL1       -0.0002
     11 C          63.8583   82.0086   10.7005 C.ar    1  UNL1       -0.0000
     12 C          64.6274   81.6962   11.9497 C.ar    1  UNL1       -0.0002
     13 C          64.4938   82.5808   13.1537 C.ar    1  UNL1       -0.0010
     14 C          63.7472   89.0074   15.4468 C.3     1  UNL1        0.1011
     15 C          63.2177   89.4740   16.7704 C.3     1  UNL1        0.0265
     16 C          65.6257   91.9528   12.6103 C.ar    1  UNL1        0.0001
     17 C          64.2823   91.3631   12.2981 C.ar    1  UNL1       -0.0003
     18 C          63.6561   90.3814   13.2436 C.ar    1  UNL1       -0.0027
     19 C          64.3734   89.9892   14.5013 C.ar    1  UNL1       -0.0042
     20 C          65.7169   90.5788   14.8135 C.ar    1  UNL1       -0.0027
     21 C          66.3430   91.5606   13.8679 C.ar    1  UNL1       -0.0003
     22 C          68.6480   92.9430    8.5011 C.3     1  UNL1        0.0521
     23 C          67.7630   93.4296    9.6101 C.ar    1  UNL1        0.0590
     24 C          67.1369   92.4479   10.5557 C.ar    1  UNL1        0.0147
     25 C          66.2519   92.9346   11.6647 C.ar    1  UNL1        0.0023
     26 C          65.9931   94.4030   11.8282 C.ar    1  UNL1        0.0147
     27 C          66.6192   95.3847   10.8826 C.ar    1  UNL1        0.0590
     28 C          66.3604   96.8532   11.0461 C.3     1  UNL1        0.0521
     29 N          67.5042   94.8980    9.7736 N.ar    1  UNL1       -0.2540
     30 C          63.1756   83.3281   14.9370 C.3     1  UNL1        0.0471
     31 C          61.7947   82.7459   14.8716 C.3     1  UNL1        0.0357
     32 C          61.5706   81.4195   14.2078 C.3     1  UNL1        0.1373
     33 O          60.2763   80.6888   14.4100 O.3     1  UNL1       -0.3820
     34 H          60.1981   80.4207   15.3389 H       1  UNL1        0.2104
@<TRIPOS>BOND
     1    22    23    1
     2    23    24   ar
     3    24    25   ar
     4    25    16    1
     5    16    17   ar
     6    17    18   ar
     7    18    19   ar
     8    19    14    1
     9    14    15    1
    10    14     1    1
    11     1     2    1
    12     2     3    1
    13     3     4    1
    14     4    30    1
    15    30    31    1
    16    31    32    1
    17    32    33    1
    18     4     8    1
    19     8     9   ar
    20     9    10   ar
    21    10    11   ar
    22    11    12   ar
    23    12    13   ar
    24     4     5    1
    25     5     6    1
    26     6     7    2
    27    19    20   ar
    28    20    21   ar
    29    25    26   ar
    30    26    27   ar
    31    27    28    1
    32    27    29   ar
    33    29    23   ar
    34    21    16   ar
    35     6     1   am
    36    13     8   ar
    37    33    34    1
@<TRIPOS>MOLECULE
*****
 34 37 0 0 0
SMALL
GASTEIGER

@<TRIPOS>ATOM
      1 N          63.3478   90.3365   11.9456 N.am    1  UNL1       -0.2438
      2 C          63.9903   90.1675   13.2905 C.3     1  UNL1        0.1009
      3 C          65.1560   91.0281   13.6783 C.3     1  UNL1        0.0661
      4 C          65.6794   92.0577   12.7211 C.3     1  UNL1        0.1578
      5 O          65.0369   92.2267   11.3763 O.3     1  UNL1       -0.4375
      6 C          63.8711   91.3661   10.9885 C.2     1  UNL1        0.4051
      7 O          63.2287   91.5351    9.6436 O.2     1  UNL1       -0.2262
      8 C          66.6166   92.2721   13.8725 C.ar    1  UNL1        0.0137
      9 C          68.0968   92.1395   13.6693 C.ar    1  UNL1       -0.0010
     10 C          69.0341   92.3540   14.8208 C.ar    1  UNL1       -0.0002
     11 C          68.4909   92.7009   16.1753 C.ar    1  UNL1       -0.0000
     12 C          67.0107   92.8334   16.3784 C.ar    1  UNL1       -0.0002
     13 C          66.0735   92.6190   15.2270 C.ar    1  UNL1       -0.0010
     14 C          62.1820   89.4759   11.5578 C.3     1  UNL1        0.1011
     15 C          60.9127   90.1083   11.0692 C.3     1  UNL1        0.0265
     16 C          62.4929   84.9969   11.8606 C.ar    1  UNL1        0.0001
     17 C          63.2963   85.8683   12.7799 C.ar    1  UNL1       -0.0003
     18 C          63.1927   87.3613   12.6790 C.ar    1  UNL1       -0.0027
     19 C          62.2857   87.9829   11.6587 C.ar    1  UNL1       -0.0042
     20 C          61.4823   87.1115   10.7394 C.ar    1  UNL1       -0.0027
     21 C          61.5859   85.6185   10.8403 C.ar    1  UNL1       -0.0003
     22 C          63.3810   80.3869    9.6335 C.3     1  UNL1        0.0521
     23 C          63.0406   81.1989   10.8480 C.ar    1  UNL1        0.0590
     24 C          62.9370   82.6919   10.7471 C.ar    1  UNL1        0.0147
     25 C          62.5966   83.5038   11.9615 C.ar    1  UNL1        0.0023
     26 C          62.3599   82.8228   13.2768 C.ar    1  UNL1        0.0147
     27 C          62.4636   81.3298   13.3777 C.ar    1  UNL1        0.0590
     28 C          62.2269   80.6487   14.6931 C.3     1  UNL1        0.0521
     29 N          62.8039   80.5179   12.1633 N.ar    1  UNL1       -0.2540
     30 C          66.5282   93.1617   12.1639 C.3     1  UNL1        0.0471
     31 C          65.8991   94.2537   11.3505 C.3     1  UNL1        0.0357
     32 C          66.7494   95.1106   10.4600 C.3     1  UNL1        0.1373
     33 O          67.9590   94.5280    9.7911 O.3     1  UNL1       -0.3820
     34 H          68.6167   94.2895   10.4630 H       1  UNL1        0.2104
@<TRIPOS>BOND
     1    22    23    1
     2    23    24   ar
     3    24    25   ar
     4    25    16    1
     5    16    17   ar
     6    17    18   ar
     7    18    19   ar
     8    19    14    1
     9    14    15    1
    10    14     1    1
    11     1     2    1
    12     2     3    1
    13     3     4    1
    14     4    30    1
    15    30    31    1
    16    31    32    1
    17    32    33    1
    18     4     8    1
    19     8     9   ar
    20     9    10   ar
    21    10    11   ar
    22    11    12   ar
    23    12    13   ar
    24     4     5    1
    25     5     6    1
    26     6     7    2
    27    19    20   ar
    28    20    21   ar
    29    25    26   ar
    30    26    27   ar
    31    27    28    1
    32    27    29   ar
    33    29    23   ar
    34    21    16   ar
    35     6     1   am
    36    13     8   ar
    37    33    34    1
@<TRIPOS>MOLECULE
*****
 34 37 0 0 0
SMALL
GASTEIGER

@<TRIPOS>ATOM
      1 N          63.3240   90.3607   11.9431 N.am    1  UNL1       -0.2438
      2 C          63.9967   90.1906   13.2730 C.3     1  UNL1        0.1009
      3 C          65.1656   91.0566   13.6385 C.3     1  UNL1        0.0661
      4 C          65.6619   92.0928   12.6742 C.3     1  UNL1        0.1578
      5 O          64.9893   92.2630   11.3443 O.3     1  UNL1       -0.4375
      6 C          63.8203   91.3969   10.9787 C.2     1  UNL1        0.4051
      7 O          63.1477   91.5671    9.6489 O.2     1  UNL1       -0.2262
      8 C          66.6228   92.3085   13.8056 C.ar    1  UNL1        0.0137
      9 C          66.1112   92.7047   15.1588 C.ar    1  UNL1       -0.0010
     10 C          67.0721   92.9204   16.2903 C.ar    1  UNL1       -0.0002
     11 C          68.5446   92.7398   16.0684 C.ar    1  UNL1       -0.0000
     12 C          69.0561   92.3436   14.7153 C.ar    1  UNL1       -0.0002
     13 C          68.0953   92.1279   13.5838 C.ar    1  UNL1       -0.0010
     14 C          62.1551   89.4947   11.5776 C.3     1  UNL1        0.1011
     15 C          60.8727   90.1213   11.1164 C.3     1  UNL1        0.0265
     16 C          62.4958   85.0168   11.8647 C.ar    1  UNL1        0.0001
     17 C          61.5566   85.6354   10.8720 C.ar    1  UNL1       -0.0003
     18 C          61.4431   87.1280   10.7763 C.ar    1  UNL1       -0.0027
     19 C          62.2687   88.0021   11.6733 C.ar    1  UNL1       -0.0042
     20 C          63.2078   87.3835   12.6659 C.ar    1  UNL1       -0.0027
     21 C          63.3214   85.8908   12.7616 C.ar    1  UNL1       -0.0003
     22 C          62.2937   80.6603   14.6896 C.3     1  UNL1        0.0521
     23 C          62.5083   81.3459   13.3728 C.ar    1  UNL1        0.0590
     24 C          62.3948   82.8385   13.2771 C.ar    1  UNL1        0.0147
     25 C          62.6093   83.5241   11.9603 C.ar    1  UNL1        0.0023
     26 C          62.9374   82.7171   10.7393 C.ar    1  UNL1        0.0147
     27 C          63.0509   81.2245   10.8350 C.ar    1  UNL1        0.0590
     28 C          63.3790   80.4174    9.6139 C.3     1  UNL1        0.0521
     29 N          62.8363   80.5389   12.1518 N.ar    1  UNL1       -0.2540
     30 C          66.4918   93.2039   12.1028 C.3     1  UNL1        0.0471
     31 C          66.2315   93.6942   10.7093 C.3     1  UNL1        0.0357
     32 C          67.2599   94.5269   10.0027 C.3     1  UNL1        0.1373
     33 O          68.6045   93.9449    9.6816 O.3     1  UNL1       -0.3820
     34 H          69.0825   93.7613   10.5055 H       1  UNL1        0.2104
@<TRIPOS>BOND
     1    22    23    1
     2    23    24   ar
     3    24    25   ar
     4    25    16    1
     5    16    17   ar
     6    17    18   ar
     7    18    19   ar
     8    19    14    1
     9    14    15    1
    10    14     1    1
    11     1     2    1
    12     2     3    1
    13     3     4    1
    14     4    30    1
    15    30    31    1
    16    31    32    1
    17    32    33    1
    18     4     8    1
    19     8     9   ar
    20     9    10   ar
    21    10    11   ar
    22    11    12   ar
    23    12    13   ar
    24     4     5    1
    25     5     6    1
    26     6     7    2
    27    19    20   ar
    28    20    21   ar
    29    25    26   ar
    30    26    27   ar
    31    27    28    1
    32    27    29   ar
    33    29    23   ar
    34    21    16   ar
    35     6     1   am
    36    13     8   ar
    37    33    34    1
@<TRIPOS>MOLECULE
*****
 34 37 0 0 0
SMALL
GASTEIGER

@<TRIPOS>ATOM
      1 N          62.1199   86.3027   10.7939 N.am    1  UNL1       -0.2438
      2 C          61.9147   85.6481   12.1279 C.3     1  UNL1        0.1009
      3 C          62.3886   84.2432   12.3547 C.3     1  UNL1        0.0661
      4 C          63.0677   83.4928   11.2476 C.3     1  UNL1        0.1578
      5 O          63.2729   84.1473    9.9137 O.3     1  UNL1       -0.4375
      6 C          62.7990   85.5523    9.6868 C.2     1  UNL1        0.4051
      7 O          63.0043   86.2069    8.3529 O.2     1  UNL1       -0.2262
      8 C          63.1025   82.4521   12.3273 C.ar    1  UNL1        0.0137
      9 C          64.4175   81.9911   12.8825 C.ar    1  UNL1       -0.0010
     10 C          64.4523   80.9503   13.9623 C.ar    1  UNL1       -0.0002
     11 C          63.1721   80.3707   14.4866 C.ar    1  UNL1       -0.0000
     12 C          61.8571   80.8316   13.9314 C.ar    1  UNL1       -0.0002
     13 C          61.8223   81.8723   12.8517 C.ar    1  UNL1       -0.0010
     14 C          61.6460   87.7077   10.5671 C.3     1  UNL1        0.1011
     15 C          60.3188   87.9552    9.9135 C.3     1  UNL1        0.0265
     16 C          64.2061   91.1799   11.8476 C.ar    1  UNL1        0.0001
     17 C          64.0135   90.0107   12.7673 C.ar    1  UNL1       -0.0003
     18 C          63.1602   88.8533   12.3405 C.ar    1  UNL1       -0.0027
     19 C          62.4994   88.8651   10.9939 C.ar    1  UNL1       -0.0042
     20 C          62.6920   90.0343   10.0742 C.ar    1  UNL1       -0.0027
     21 C          63.5454   91.1917   10.5010 C.ar    1  UNL1       -0.0003
     22 C          66.3029   95.8304   10.8593 C.3     1  UNL1        0.0521
     23 C          66.1078   94.6626   11.7803 C.ar    1  UNL1        0.0590
     24 C          65.2545   93.5052   11.3535 C.ar    1  UNL1        0.0147
     25 C          65.0595   92.3374   12.2744 C.ar    1  UNL1        0.0023
     26 C          65.7178   92.3269   13.6222 C.ar    1  UNL1        0.0147
     27 C          66.5712   93.4843   14.0490 C.ar    1  UNL1        0.0590
     28 C          67.2295   93.4739   15.3968 C.3     1  UNL1        0.0521
     29 N          66.7662   94.6522   13.1280 N.ar    1  UNL1       -0.2540
     30 C          63.7589   82.3810   10.5155 C.3     1  UNL1        0.0471
     31 C          62.9517   81.3198    9.8282 C.3     1  UNL1        0.0357
     32 C          63.1513   79.8765   10.1850 C.3     1  UNL1        0.1373
     33 O          62.8055   78.8044    9.1945 O.3     1  UNL1       -0.3820
     34 H          61.8478   78.8027    9.0410 H       1  UNL1        0.2104
@<TRIPOS>BOND
     1    22    23    1
     2    23    24   ar
     3    24    25   ar
     4    25    16    1
     5    16    17   ar
     6    17    18   ar
     7    18    19   ar
     8    19    14    1
     9    14    15    1
    10    14     1    1
    11     1     2    1
    12     2     3    1
    13     3     4    1
    14     4    30    1
    15    30    31    1
    16    31    32    1
    17    32    33    1
    18     4     8    1
    19     8     9   ar
    20     9    10   ar
    21    10    11   ar
    22    11    12   ar
    23    12    13   ar
    24     4     5    1
    25     5     6    1
    26     6     7    2
    27    19    20   ar
    28    20    21   ar
    29    25    26   ar
    30    26    27   ar
    31    27    28    1
    32    27    29   ar
    33    29    23   ar
    34    21    16   ar
    35     6     1   am
    36    13     8   ar
    37    33    34    1
@<TRIPOS>MOLECULE
*****
 34 37 0 0 0
SMALL
GASTEIGER

@<TRIPOS>ATOM
      1 N          62.1008   86.3063   10.8458 N.am    1  UNL1       -0.2438
      2 C          61.9062   85.6436   12.1774 C.3     1  UNL1        0.1009
      3 C          62.3846   84.2384   12.3928 C.3     1  UNL1        0.0661
      4 C          63.0575   83.4958   11.2767 C.3     1  UNL1        0.1578
      5 O          63.2520   84.1583    9.9451 O.3     1  UNL1       -0.4375
      6 C          62.7737   85.5637    9.7297 C.2     1  UNL1        0.4051
      7 O          62.9682   86.2263    8.3981 O.2     1  UNL1       -0.2262
      8 C          63.1020   82.4490   12.3501 C.ar    1  UNL1        0.0137
      9 C          61.8265   81.8676   12.8841 C.ar    1  UNL1       -0.0010
     10 C          61.8710   80.8208   13.9576 C.ar    1  UNL1       -0.0002
     11 C          63.1910   80.3554   14.4970 C.ar    1  UNL1       -0.0000
     12 C          64.4665   80.9368   13.9630 C.ar    1  UNL1       -0.0002
     13 C          64.4220   81.9836   12.8896 C.ar    1  UNL1       -0.0010
     14 C          61.6224   87.7115   10.6303 C.3     1  UNL1        0.1011
     15 C          60.2789   87.9599   10.0113 C.3     1  UNL1        0.0265
     16 C          64.2182   91.1823   11.8410 C.ar    1  UNL1        0.0001
     17 C          63.5611   91.1717   10.4926 C.ar    1  UNL1       -0.0003
     18 C          62.6958   90.0148   10.0891 C.ar    1  UNL1       -0.0027
     19 C          62.4877   88.8684   11.0339 C.ar    1  UNL1       -0.0042
     20 C          63.1447   88.8791   12.3823 C.ar    1  UNL1       -0.0027
     21 C          64.0100   90.0361   12.7858 C.ar    1  UNL1       -0.0003
     22 C          67.2680   93.5145   15.3424 C.3     1  UNL1        0.0521
     23 C          66.6083   93.5054   13.9952 C.ar    1  UNL1        0.0590
     24 C          65.7431   92.3485   13.5917 C.ar    1  UNL1        0.0147
     25 C          65.0834   92.3393   12.2445 C.ar    1  UNL1        0.0023
     26 C          65.2890   93.4871   11.3010 C.ar    1  UNL1        0.0147
     27 C          66.1542   94.6440   11.7045 C.ar    1  UNL1        0.0590
     28 C          66.3598   95.7918   10.7609 C.3     1  UNL1        0.0521
     29 N          66.8139   94.6531   13.0517 N.ar    1  UNL1       -0.2540
     30 C          63.7458   82.3896   10.5334 C.3     1  UNL1        0.0471
     31 C          62.9360   81.3294    9.8478 C.3     1  UNL1        0.0357
     32 C          63.1502   79.8843   10.1883 C.3     1  UNL1        0.1373
     33 O          62.7951   78.8188    9.1940 O.3     1  UNL1       -0.3820
     34 H          61.8350   78.8124    9.0560 H       1  UNL1        0.2104
@<TRIPOS>BOND
     1    22    23    1
     2    23    24   ar
     3    24    25   ar
     4    25    16    1
     5    16    17   ar
     6    17    18   ar
     7    18    19   ar
     8    19    14    1
     9    14    15    1
    10    14     1    1
    11     1     2    1
    12     2     3    1
    13     3     4    1
    14     4    30    1
    15    30    31    1
    16    31    32    1
    17    32    33    1
    18     4     8    1
    19     8     9   ar
    20     9    10   ar
    21    10    11   ar
    22    11    12   ar
    23    12    13   ar
    24     4     5    1
    25     5     6    1
    26     6     7    2
    27    19    20   ar
    28    20    21   ar
    29    25    26   ar
    30    26    27   ar
    31    27    28    1
    32    27    29   ar
    33    29    23   ar
    34    21    16   ar
    35     6     1   am
    36    13     8   ar
    37    33    34    1
