@<TRIPOS>MOLECULE
*****
 33 36 0 0 0
SMALL
GASTEIGER

@<TRIPOS>ATOM
      1 C          63.4491   90.0337   14.4037 C.2     1  UNL1        0.2320
      2 O          63.8014   88.5978   14.6572 O.2     1  UNL1       -0.2744
      3 N          62.6255   90.4036   13.2059 N.am    1  UNL1       -0.2639
      4 H          62.3943   91.3460   13.0395 H       1  UNL1        0.1567
      5 C          62.1541   89.3378   12.2617 C.ar    1  UNL1        0.1655
      6 N          62.9416   88.1400   11.8199 N.ar    1  UNL1       -0.2239
      7 C          62.0867   87.3445   10.8786 C.ar    1  UNL1        0.0913
      8 C          60.7708   88.0506   10.7384 C.ar    1  UNL1        0.0573
      9 S          60.8124   89.2825   11.5932 S.2     1  UNL1       -0.0508
     10 C          62.4788   86.0671   10.1970 C.ar    1  UNL1        0.0403
     11 C          62.5411   85.8415    8.7153 C.ar    1  UNL1        0.1021
     12 N          62.9783   84.4260    8.4801 N.ar    1  UNL1       -0.2269
     13 C          63.1862   83.7769    9.8162 C.ar    1  UNL1        0.1406
     14 N          63.6168   82.3933   10.2038 N.ar    1  UNL1       -0.3370
     15 C          63.7387   82.0240   11.6525 C.ar    1  UNL1        0.0802
     16 C          63.4300   83.0382   12.7136 C.ar    1  UNL1        0.0517
     17 BR         63.5519   82.6688   14.1623 Br      1  UNL1       -0.0475
     18 C          62.9995   84.4218   12.3260 C.ar    1  UNL1        0.0113
     19 C          62.8776   84.7912   10.8774 C.ar    1  UNL1        0.0374
     20 H          63.8194   81.7276    9.5073 H       1  UNL1        0.1674
     21 C          63.9205   91.0996   15.3480 C.3     1  UNL1        0.1117
     22 C          67.2706   92.3291   13.6117 C.ar    1  UNL1        0.0641
     23 C          67.9593   92.9965   14.7650 C.ar    1  UNL1        0.0158
     24 C          67.3017   93.0317   16.1128 C.ar    1  UNL1        0.0010
     25 C          65.9554   92.3993   16.3071 C.ar    1  UNL1       -0.0037
     26 C          65.2667   91.7319   15.1537 C.ar    1  UNL1       -0.0118
     27 C          65.9244   91.6968   13.8059 C.ar    1  UNL1        0.0121
     28 N          67.9282   92.2939   12.2639 N.pl3   1  UNL1       -0.2187
     29 H          68.7977   91.8460   12.1520 H       1  UNL1        0.1734
     30 C          66.5938   93.5889    9.9096 C.3     1  UNL1        0.1996
     31 S          67.2610   92.9414   11.0868 S.O2    1  UNL1        0.0558
     32 O          66.7810   94.0541   11.9709 O.2     1  UNL1       -0.1544
     33 O          67.7411   91.8288   10.2027 O.2     1  UNL1       -0.1544
@<TRIPOS>BOND
     1    30    31    1
     2    31    32    2
     3    31    33    2
     4    31    28    1
     5    28    22    1
     6    22    23   ar
     7    23    24   ar
     8    24    25   ar
     9    25    26   ar
    10    26    21    1
    11    21     1    1
    12     1     2    2
    13     1     3   am
    14     3     5    1
    15     5     6   ar
    16     6     7   ar
    17     7    10    1
    18    10    11   ar
    19    11    12   ar
    20    12    13   ar
    21    13    14   ar
    22    14    15   ar
    23    15    16   ar
    24    16    17    1
    25    16    18   ar
    26    18    19   ar
    27     7     8   ar
    28     8     9   ar
    29    26    27   ar
    30    27    22   ar
    31     9     5   ar
    32    19    10   ar
    33    19    13    1
    34    28    29    1
    35     3     4    1
    36    14    20    1
@<TRIPOS>MOLECULE
*****
 33 36 0 0 0
SMALL
GASTEIGER

@<TRIPOS>ATOM
      1 C          62.9187   89.9007   12.1296 C.2     1  UNL1        0.2320
      2 O          62.7345   89.3848   13.5261 O.2     1  UNL1       -0.2744
      3 N          62.8043   88.9646   10.9632 N.am    1  UNL1       -0.2639
      4 H          62.9252   89.3032   10.0467 H       1  UNL1        0.1567
      5 C          62.5055   87.5128   11.1930 C.ar    1  UNL1        0.1655
      6 N          62.8561   86.7239   12.4197 N.ar    1  UNL1       -0.2239
      7 C          62.3710   85.3185   12.2214 C.ar    1  UNL1        0.0913
      8 C          61.7206   85.2387   10.8722 C.ar    1  UNL1        0.0573
      9 S          61.8037   86.5948   10.2366 S.2     1  UNL1       -0.0508
     10 C          62.5116   84.1908   13.2005 C.ar    1  UNL1        0.0403
     11 C          62.5324   84.3181   14.6949 C.ar    1  UNL1        0.1021
     12 N          62.6897   82.9438   15.2750 N.ar    1  UNL1       -0.2269
     13 C          62.7663   81.9671   14.1391 C.ar    1  UNL1        0.1406
     14 N          62.9220   80.4756   14.1066 N.ar    1  UNL1       -0.3370
     15 C          62.9676   79.7548   12.7919 C.ar    1  UNL1        0.0802
     16 C          62.8575   80.5256   11.5098 C.ar    1  UNL1        0.0517
     17 BR         62.9031   79.8047   10.1951 Br      1  UNL1       -0.0475
     18 C          62.7018   82.0171   11.5423 C.ar    1  UNL1        0.0113
     19 C          62.6562   82.7379   12.8569 C.ar    1  UNL1        0.0374
     20 H          62.9942   79.9698   14.9481 H       1  UNL1        0.1674
     21 C          63.2175   91.3525   11.8997 C.3     1  UNL1        0.1117
     22 C          66.8881   92.0428   13.2416 C.ar    1  UNL1        0.0641
     23 C          67.4608   92.8366   12.1050 C.ar    1  UNL1        0.0158
     24 C          66.6191   93.1357   10.9000 C.ar    1  UNL1        0.0010
     25 C          65.2046   92.6410   10.8315 C.ar    1  UNL1       -0.0037
     26 C          64.6319   91.8472   11.9682 C.ar    1  UNL1       -0.0118
     27 C          65.4737   91.5481   13.1732 C.ar    1  UNL1        0.0121
     28 N          67.7298   91.7436   14.4466 N.pl3   1  UNL1       -0.2187
     29 H          67.8922   90.8102   14.7142 H       1  UNL1        0.1734
     30 C          68.9183   93.9896   16.0413 C.3     1  UNL1        0.1996
     31 S          68.3240   92.8666   15.2439 S.O2    1  UNL1        0.0558
     32 O          69.6133   92.7186   14.4915 O.2     1  UNL1       -0.1544
     33 O          67.0348   93.0146   15.9963 O.2     1  UNL1       -0.1544
@<TRIPOS>BOND
     1    30    31    1
     2    31    32    2
     3    31    33    2
     4    31    28    1
     5    28    22    1
     6    22    23   ar
     7    23    24   ar
     8    24    25   ar
     9    25    26   ar
    10    26    21    1
    11    21     1    1
    12     1     2    2
    13     1     3   am
    14     3     5    1
    15     5     6   ar
    16     6     7   ar
    17     7    10    1
    18    10    11   ar
    19    11    12   ar
    20    12    13   ar
    21    13    14   ar
    22    14    15   ar
    23    15    16   ar
    24    16    17    1
    25    16    18   ar
    26    18    19   ar
    27     7     8   ar
    28     8     9   ar
    29    26    27   ar
    30    27    22   ar
    31     9     5   ar
    32    19    10   ar
    33    19    13    1
    34    28    29    1
    35     3     4    1
    36    14    20    1
@<TRIPOS>MOLECULE
*****
 33 36 0 0 0
SMALL
GASTEIGER

@<TRIPOS>ATOM
      1 C          63.5315   89.7338   15.5698 C.2     1  UNL1        0.2320
      2 O          63.2388   89.3319   14.1546 O.2     1  UNL1       -0.2744
      3 N          63.5596   88.6970   16.6534 N.am    1  UNL1       -0.2639
      4 H          63.7517   88.9608   17.5822 H       1  UNL1        0.1567
      5 C          63.2950   87.2583   16.3218 C.ar    1  UNL1        0.1655
      6 N          63.7912   86.5271   15.1098 N.ar    1  UNL1       -0.2239
      7 C          63.2906   85.1150   15.1829 C.ar    1  UNL1        0.0913
      8 C          62.4849   84.9735   16.4402 C.ar    1  UNL1        0.0573
      9 S          62.4876   86.2981   17.1441 S.2     1  UNL1       -0.0508
     10 C          63.5501   84.0342   14.1757 C.ar    1  UNL1        0.0403
     11 C          64.0497   82.6519   14.4747 C.ar    1  UNL1        0.1021
     12 N          64.1639   81.9094   13.1764 N.ar    1  UNL1       -0.2269
     13 C          63.7348   82.8328   12.0750 C.ar    1  UNL1        0.1406
     14 N          63.6406   82.6476   10.5895 N.ar    1  UNL1       -0.3370
     15 C          63.1670   83.7756    9.7216 C.ar    1  UNL1        0.0802
     16 C          62.7876   85.0888   10.3392 C.ar    1  UNL1        0.0517
     17 BR         62.3140   86.2168    9.4712 Br      1  UNL1       -0.0475
     18 C          62.8819   85.2741   11.8247 C.ar    1  UNL1        0.0113
     19 C          63.3555   84.1461   12.6926 C.ar    1  UNL1        0.0374
     20 H          63.8896   81.7856   10.1841 H       1  UNL1        0.1674
     21 C          63.7962   91.1726   15.9013 C.3     1  UNL1        0.1117
     22 C          66.7779   92.5414   13.6684 C.ar    1  UNL1        0.0641
     23 C          67.7025   93.0713   14.7240 C.ar    1  UNL1        0.0158
     24 C          67.3250   92.9683   16.1721 C.ar    1  UNL1        0.0010
     25 C          66.0228   92.3354   16.5646 C.ar    1  UNL1       -0.0037
     26 C          65.0983   91.8055   15.5089 C.ar    1  UNL1       -0.0118
     27 C          65.4758   91.9085   14.0608 C.ar    1  UNL1        0.0121
     28 N          67.1554   92.6443   12.2203 N.pl3   1  UNL1       -0.2187
     29 H          67.9435   92.1613   11.8815 H       1  UNL1        0.1734
     30 C          65.5088   94.3222   10.3566 C.3     1  UNL1        0.1996
     31 S          66.3321   93.4833   11.2885 S.O2    1  UNL1        0.0558
     32 O          65.9396   92.2521   10.5268 O.2     1  UNL1       -0.1544
     33 O          66.7246   94.7145   12.0501 O.2     1  UNL1       -0.1544
@<TRIPOS>BOND
     1    30    31    1
     2    31    32    2
     3    31    33    2
     4    31    28    1
     5    28    22    1
     6    22    23   ar
     7    23    24   ar
     8    24    25   ar
     9    25    26   ar
    10    26    21    1
    11    21     1    1
    12     1     2    2
    13     1     3   am
    14     3     5    1
    15     5     6   ar
    16     6     7   ar
    17     7    10    1
    18    10    11   ar
    19    11    12   ar
    20    12    13   ar
    21    13    14   ar
    22    14    15   ar
    23    15    16   ar
    24    16    17    1
    25    16    18   ar
    26    18    19   ar
    27     7     8   ar
    28     8     9   ar
    29    26    27   ar
    30    27    22   ar
    31     9     5   ar
    32    19    10   ar
    33    19    13    1
    34    28    29    1
    35     3     4    1
    36    14    20    1
@<TRIPOS>MOLECULE
*****
 33 36 0 0 0
SMALL
GASTEIGER

@<TRIPOS>ATOM
      1 C          62.8397   89.9118   11.8573 C.2     1  UNL1        0.2320
      2 O          62.5134   89.4803   13.2564 O.2     1  UNL1       -0.2744
      3 N          62.8400   88.9072   10.7435 N.am    1  UNL1       -0.2639
      4 H          63.0542   89.1904    9.8253 H       1  UNL1        0.1567
      5 C          62.5141   87.4711   11.0287 C.ar    1  UNL1        0.1655
      6 N          62.8701   86.7169   12.2754 N.ar    1  UNL1       -0.2239
      7 C          62.3509   85.3168   12.1345 C.ar    1  UNL1        0.0913
      8 C          61.6740   85.2055   10.8006 C.ar    1  UNL1        0.0573
      9 S          61.7748   86.5369   10.1171 S.2     1  UNL1       -0.0508
     10 C          62.4851   84.2203   13.1493 C.ar    1  UNL1        0.0403
     11 C          62.5151   84.3962   14.6386 C.ar    1  UNL1        0.1021
     12 N          62.6613   83.0400   15.2626 N.ar    1  UNL1       -0.2269
     13 C          62.7217   82.0260   14.1589 C.ar    1  UNL1        0.1406
     14 N          62.8618   80.5326   14.1746 N.ar    1  UNL1       -0.3370
     15 C          62.8930   79.7688   12.8840 C.ar    1  UNL1        0.0802
     16 C          62.7841   80.4983   11.5779 C.ar    1  UNL1        0.0517
     17 BR         62.8153   79.7343   10.2873 Br      1  UNL1       -0.0475
     18 C          62.6440   81.9916   11.5623 C.ar    1  UNL1        0.0113
     19 C          62.6128   82.7554   12.8528 C.ar    1  UNL1        0.0374
     20 H          62.9333   80.0539   15.0318 H       1  UNL1        0.1674
     21 C          63.1657   91.3479   11.5721 C.3     1  UNL1        0.1117
     22 C          66.3469   93.6990   11.8924 C.ar    1  UNL1        0.0641
     23 C          66.9909   93.1382   13.1256 C.ar    1  UNL1        0.0158
     24 C          66.3598   91.9807   13.8410 C.ar    1  UNL1        0.0010
     25 C          65.0847   91.3839   13.3232 C.ar    1  UNL1       -0.0037
     26 C          64.4407   91.9447   12.0899 C.ar    1  UNL1       -0.0118
     27 C          65.0719   93.1023   11.3745 C.ar    1  UNL1        0.0121
     28 N          66.9780   94.8565   11.1769 N.pl3   1  UNL1       -0.2187
     29 H          67.2390   95.6623   11.6788 H       1  UNL1        0.1734
     30 C          67.4446   94.7163    8.2167 C.3     1  UNL1        0.1996
     31 S          67.2113   94.7865    9.6968 S.O2    1  UNL1        0.0558
     32 O          68.1070   93.5995    9.8943 O.2     1  UNL1       -0.1544
     33 O          66.3156   95.9733    9.4994 O.2     1  UNL1       -0.1544
@<TRIPOS>BOND
     1    30    31    1
     2    31    32    2
     3    31    33    2
     4    31    28    1
     5    28    22    1
     6    22    23   ar
     7    23    24   ar
     8    24    25   ar
     9    25    26   ar
    10    26    21    1
    11    21     1    1
    12     1     2    2
    13     1     3   am
    14     3     5    1
    15     5     6   ar
    16     6     7   ar
    17     7    10    1
    18    10    11   ar
    19    11    12   ar
    20    12    13   ar
    21    13    14   ar
    22    14    15   ar
    23    15    16   ar
    24    16    17    1
    25    16    18   ar
    26    18    19   ar
    27     7     8   ar
    28     8     9   ar
    29    26    27   ar
    30    27    22   ar
    31     9     5   ar
    32    19    10   ar
    33    19    13    1
    34    28    29    1
    35     3     4    1
    36    14    20    1
@<TRIPOS>MOLECULE
*****
 33 36 0 0 0
SMALL
GASTEIGER

@<TRIPOS>ATOM
      1 C          64.3419   85.0787   15.2626 C.2     1  UNL1        0.2320
      2 O          65.6737   85.6714   14.9090 O.2     1  UNL1       -0.2744
      3 N          63.2283   85.9653   15.7356 N.am    1  UNL1       -0.2639
      4 H          62.3542   85.5763   15.9677 H       1  UNL1        0.1567
      5 C          63.4464   87.4444   15.8550 C.ar    1  UNL1        0.1655
      6 N          64.1897   88.3077   14.8792 N.ar    1  UNL1       -0.2239
      7 C          64.1622   89.7169   15.3923 C.ar    1  UNL1        0.0913
      8 C          63.4018   89.7247   16.6852 C.ar    1  UNL1        0.0573
      9 S          62.9594   88.3203   16.9712 S.2     1  UNL1       -0.0508
     10 C          64.7856   90.9091   14.7289 C.ar    1  UNL1        0.0403
     11 C          65.7346   91.8784   15.3691 C.ar    1  UNL1        0.1021
     12 N          66.1050   92.9096   14.3447 N.ar    1  UNL1       -0.2269
     13 C          65.3848   92.5777   13.0714 C.ar    1  UNL1        0.1406
     14 N          65.3662   93.2415   11.7265 N.ar    1  UNL1       -0.3370
     15 C          64.5322   92.6690   10.6190 C.ar    1  UNL1        0.0802
     16 C          63.7168   91.4326   10.8564 C.ar    1  UNL1        0.0517
     17 BR         62.8828   90.8600    9.7489 Br      1  UNL1       -0.0475
     18 C          63.7354   90.7687   12.2014 C.ar    1  UNL1        0.0113
     19 C          64.5694   91.3413   13.3089 C.ar    1  UNL1        0.0374
     20 H          65.9014   94.0530   11.5706 H       1  UNL1        0.1674
     21 C          64.1238   83.5994   15.1432 C.3     1  UNL1        0.1117
     22 C          63.4917   83.2203   11.2436 C.ar    1  UNL1        0.0641
     23 C          63.0055   81.8032   11.1717 C.ar    1  UNL1        0.0158
     24 C          62.8919   80.9847   12.4236 C.ar    1  UNL1        0.0010
     25 C          63.2647   81.5835   13.7475 C.ar    1  UNL1       -0.0037
     26 C          63.7510   83.0007   13.8194 C.ar    1  UNL1       -0.0118
     27 C          63.8645   83.8191   12.5674 C.ar    1  UNL1        0.0121
     28 N          63.6053   84.0388    9.9917 N.pl3   1  UNL1       -0.2187
     29 H          64.3270   83.8557    9.3476 H       1  UNL1        0.1734
     30 C          61.6331   86.2337    9.4504 C.3     1  UNL1        0.1996
     31 S          62.6192   85.1362    9.7211 S.O2    1  UNL1        0.0558
     32 O          63.2832   85.4080    8.4037 O.2     1  UNL1       -0.1544
     33 O          61.9552   84.8645   11.0384 O.2     1  UNL1       -0.1544
@<TRIPOS>BOND
     1    30    31    1
     2    31    32    2
     3    31    33    2
     4    31    28    1
     5    28    22    1
     6    22    23   ar
     7    23    24   ar
     8    24    25   ar
     9    25    26   ar
    10    26    21    1
    11    21     1    1
    12     1     2    2
    13     1     3   am
    14     3     5    1
    15     5     6   ar
    16     6     7   ar
    17     7    10    1
    18    10    11   ar
    19    11    12   ar
    20    12    13   ar
    21    13    14   ar
    22    14    15   ar
    23    15    16   ar
    24    16    17    1
    25    16    18   ar
    26    18    19   ar
    27     7     8   ar
    28     8     9   ar
    29    26    27   ar
    30    27    22   ar
    31     9     5   ar
    32    19    10   ar
    33    19    13    1
    34    28    29    1
    35     3     4    1
    36    14    20    1
@<TRIPOS>MOLECULE
*****
 33 36 0 0 0
SMALL
GASTEIGER

@<TRIPOS>ATOM
      1 C          62.8039   85.1174   10.4199 C.2     1  UNL1        0.2320
      2 O          63.1143   85.9892    9.2394 O.2     1  UNL1       -0.2744
      3 N          62.6281   85.7290   11.7782 N.am    1  UNL1       -0.2639
      4 H          62.4245   85.1568   12.5531 H       1  UNL1        0.1567
      5 C          62.7626   87.2123   11.9560 C.ar    1  UNL1        0.1655
      6 N          63.6226   87.9042   12.9717 N.ar    1  UNL1       -0.2239
      7 C          63.4523   89.3837   12.7928 C.ar    1  UNL1        0.0913
      8 C          62.4870   89.6062   11.6665 C.ar    1  UNL1        0.0573
      9 S          62.0608   88.2643   11.1493 S.2     1  UNL1       -0.0508
     10 C          64.1285   90.4529   13.5987 C.ar    1  UNL1        0.0403
     11 C          64.1458   90.5508   15.0954 C.ar    1  UNL1        0.1021
     12 N          64.9341   91.7704   15.4710 N.ar    1  UNL1       -0.2269
     13 C          65.4041   92.4262   14.2065 C.ar    1  UNL1        0.1406
     14 N          66.2211   93.6597   13.9592 N.ar    1  UNL1       -0.3370
     15 C          66.5401   94.0788   12.5548 C.ar    1  UNL1        0.0802
     16 C          66.0422   93.2645   11.3976 C.ar    1  UNL1        0.0517
     17 BR         66.3613   93.6838    9.9931 Br      1  UNL1       -0.0475
     18 C          65.2253   92.0311   11.6449 C.ar    1  UNL1        0.0113
     19 C          64.9062   91.6120   13.0493 C.ar    1  UNL1        0.0374
     20 H          66.5479   94.1941   14.7187 H       1  UNL1        0.1674
     21 C          62.6694   83.6341   10.2421 C.3     1  UNL1        0.1117
     22 C          62.6823   82.4097   14.0171 C.ar    1  UNL1        0.0641
     23 C          62.7381   80.9221   13.8325 C.ar    1  UNL1        0.0158
     24 C          62.7710   80.3385   12.4511 C.ar    1  UNL1        0.0010
     25 C          62.7481   81.2426   11.2542 C.ar    1  UNL1       -0.0037
     26 C          62.6923   82.7302   11.4389 C.ar    1  UNL1       -0.0118
     27 C          62.6594   83.3137   12.8204 C.ar    1  UNL1        0.0121
     28 N          62.6495   82.9933   15.3986 N.pl3   1  UNL1       -0.2187
     29 H          62.2459   82.4844   16.1385 H       1  UNL1        0.1734
     30 C          63.8134   85.7112   15.9068 C.3     1  UNL1        0.1996
     31 S          63.2314   84.3522   15.6527 S.O2    1  UNL1        0.0558
     32 O          64.6104   83.8013   15.4408 O.2     1  UNL1       -0.1544
     33 O          61.8524   84.9032   15.8645 O.2     1  UNL1       -0.1544
@<TRIPOS>BOND
     1    30    31    1
     2    31    32    2
     3    31    33    2
     4    31    28    1
     5    28    22    1
     6    22    23   ar
     7    23    24   ar
     8    24    25   ar
     9    25    26   ar
    10    26    21    1
    11    21     1    1
    12     1     2    2
    13     1     3   am
    14     3     5    1
    15     5     6   ar
    16     6     7   ar
    17     7    10    1
    18    10    11   ar
    19    11    12   ar
    20    12    13   ar
    21    13    14   ar
    22    14    15   ar
    23    15    16   ar
    24    16    17    1
    25    16    18   ar
    26    18    19   ar
    27     7     8   ar
    28     8     9   ar
    29    26    27   ar
    30    27    22   ar
    31     9     5   ar
    32    19    10   ar
    33    19    13    1
    34    28    29    1
    35     3     4    1
    36    14    20    1
@<TRIPOS>MOLECULE
*****
 33 36 0 0 0
SMALL
GASTEIGER

@<TRIPOS>ATOM
      1 C          62.5514   89.8442   10.3791 C.2     1  UNL1        0.2320
      2 O          61.4366   89.3037    9.5335 O.2     1  UNL1       -0.2744
      3 N          63.2353   88.9558   11.3756 N.am    1  UNL1       -0.2639
      4 H          63.9671   89.3105   11.9306 H       1  UNL1        0.1567
      5 C          62.8045   87.5270   11.5265 C.ar    1  UNL1        0.1655
      6 N          63.0814   86.6424   12.7058 N.ar    1  UNL1       -0.2239
      7 C          62.4692   85.3006   12.4327 C.ar    1  UNL1        0.0913
      8 C          61.8138   85.3558   11.0846 C.ar    1  UNL1        0.0573
      9 S          62.0210   86.7318   10.5245 S.2     1  UNL1       -0.0508
     10 C          62.5058   84.1121   13.3472 C.ar    1  UNL1        0.0403
     11 C          62.4369   84.1498   14.8451 C.ar    1  UNL1        0.1021
     12 N          62.5063   82.7383   15.3479 N.ar    1  UNL1       -0.2269
     13 C          62.6181   81.8283   14.1607 C.ar    1  UNL1        0.1406
     14 N          62.7201   80.3362   14.0459 N.ar    1  UNL1       -0.3370
     15 C          62.8218   79.6932   12.6946 C.ar    1  UNL1        0.0802
     16 C          62.8215   80.5423   11.4580 C.ar    1  UNL1        0.0517
     17 BR         62.9233   79.8993   10.1066 Br      1  UNL1       -0.0475
     18 C          62.7195   82.0344   11.5728 C.ar    1  UNL1        0.0113
     19 C          62.6178   82.6774   12.9242 C.ar    1  UNL1        0.0374
     20 H          62.7203   79.7789   14.8575 H       1  UNL1        0.1674
     21 C          62.9823   91.2730   10.2283 C.3     1  UNL1        0.1117
     22 C          65.2143   91.9909   13.4303 C.ar    1  UNL1        0.0641
     23 C          66.2331   92.9328   12.8603 C.ar    1  UNL1        0.0158
     24 C          66.1683   93.3215   11.4129 C.ar    1  UNL1        0.0010
     25 C          65.0847   92.7682   10.5355 C.ar    1  UNL1       -0.0037
     26 C          64.0659   91.8263   11.1056 C.ar    1  UNL1       -0.0118
     27 C          64.1307   91.4376   12.5530 C.ar    1  UNL1        0.0121
     28 N          65.2791   91.6023   14.8776 N.pl3   1  UNL1       -0.2187
     29 H          66.0029   91.9482   15.4483 H       1  UNL1        0.1734
     30 C          63.2032   89.7705   16.0332 C.3     1  UNL1        0.1996
     31 S          64.2411   90.6864   15.4554 S.O2    1  UNL1        0.0558
     32 O          64.8461   89.5321   14.7125 O.2     1  UNL1       -0.1544
     33 O          63.6362   91.8406   16.1983 O.2     1  UNL1       -0.1544
@<TRIPOS>BOND
     1    30    31    1
     2    31    32    2
     3    31    33    2
     4    31    28    1
     5    28    22    1
     6    22    23   ar
     7    23    24   ar
     8    24    25   ar
     9    25    26   ar
    10    26    21    1
    11    21     1    1
    12     1     2    2
    13     1     3   am
    14     3     5    1
    15     5     6   ar
    16     6     7   ar
    17     7    10    1
    18    10    11   ar
    19    11    12   ar
    20    12    13   ar
    21    13    14   ar
    22    14    15   ar
    23    15    16   ar
    24    16    17    1
    25    16    18   ar
    26    18    19   ar
    27     7     8   ar
    28     8     9   ar
    29    26    27   ar
    30    27    22   ar
    31     9     5   ar
    32    19    10   ar
    33    19    13    1
    34    28    29    1
    35     3     4    1
    36    14    20    1
@<TRIPOS>MOLECULE
*****
 33 36 0 0 0
SMALL
GASTEIGER

@<TRIPOS>ATOM
      1 C          61.5780   89.4579   11.1131 C.2     1  UNL1        0.2320
      2 O          60.5306   90.5315   11.1299 O.2     1  UNL1       -0.2744
      3 N          61.6501   88.4984    9.9623 N.am    1  UNL1       -0.2639
      4 H          62.3376   87.7938    9.9513 H       1  UNL1        0.1567
      5 C          60.6749   88.6125    8.8284 C.ar    1  UNL1        0.1655
      6 N          60.4587   89.8234    7.9699 N.ar    1  UNL1       -0.2239
      7 C          59.3948   89.4951    6.9648 C.ar    1  UNL1        0.0913
      8 C          58.9535   88.0813    7.2020 C.ar    1  UNL1        0.0573
      9 S          59.7446   87.5358    8.3538 S.2     1  UNL1       -0.0508
     10 C          58.8652   90.4185    5.9080 C.ar    1  UNL1        0.0403
     11 C          57.4308   90.8161    5.7228 C.ar    1  UNL1        0.1021
     12 N          57.3561   91.7497    4.5512 N.ar    1  UNL1       -0.2269
     13 C          58.7444   91.9291    4.0122 C.ar    1  UNL1        0.1406
     14 N          59.2798   92.7353    2.8662 N.ar    1  UNL1       -0.3370
     15 C          60.7478   92.7188    2.5587 C.ar    1  UNL1        0.0802
     16 C          61.6805   91.8960    3.3973 C.ar    1  UNL1        0.0517
     17 BR         63.1486   91.8795    3.0898 Br      1  UNL1       -0.0475
     18 C          61.1451   91.0898    4.5433 C.ar    1  UNL1        0.0113
     19 C          59.6771   91.1063    4.8507 C.ar    1  UNL1        0.0374
     20 H          58.6676   93.2753    2.3158 H       1  UNL1        0.1674
     21 C          62.5533   89.3437   12.2470 C.3     1  UNL1        0.1117
     22 C          64.9927   92.3802   11.4864 C.ar    1  UNL1        0.0641
     23 C          65.7748   92.4427   12.7648 C.ar    1  UNL1        0.0158
     24 C          65.4831   91.4721   13.8707 C.ar    1  UNL1        0.0010
     25 C          64.4092   90.4391   13.6981 C.ar    1  UNL1       -0.0037
     26 C          63.6271   90.3767   12.4196 C.ar    1  UNL1       -0.0118
     27 C          63.9189   91.3473   11.3137 C.ar    1  UNL1        0.0121
     28 N          65.2845   93.3508   10.3805 N.pl3   1  UNL1       -0.2187
     29 H          64.5453   93.8155    9.9257 H       1  UNL1        0.1734
     30 C          68.1204   93.8757    9.5546 C.3     1  UNL1        0.1996
     31 S          66.7024   93.6132    9.9675 S.O2    1  UNL1        0.0558
     32 O          66.4523   95.0901   10.0475 O.2     1  UNL1       -0.1544
     33 O          66.9525   92.1364    9.8876 O.2     1  UNL1       -0.1544
@<TRIPOS>BOND
     1    30    31    1
     2    31    32    2
     3    31    33    2
     4    31    28    1
     5    28    22    1
     6    22    23   ar
     7    23    24   ar
     8    24    25   ar
     9    25    26   ar
    10    26    21    1
    11    21     1    1
    12     1     2    2
    13     1     3   am
    14     3     5    1
    15     5     6   ar
    16     6     7   ar
    17     7    10    1
    18    10    11   ar
    19    11    12   ar
    20    12    13   ar
    21    13    14   ar
    22    14    15   ar
    23    15    16   ar
    24    16    17    1
    25    16    18   ar
    26    18    19   ar
    27     7     8   ar
    28     8     9   ar
    29    26    27   ar
    30    27    22   ar
    31     9     5   ar
    32    19    10   ar
    33    19    13    1
    34    28    29    1
    35     3     4    1
    36    14    20    1
@<TRIPOS>MOLECULE
*****
 33 36 0 0 0
SMALL
GASTEIGER

@<TRIPOS>ATOM
      1 C          62.8782   89.8631   11.2910 C.2     1  UNL1        0.2320
      2 O          63.2000   89.0632   12.5183 O.2     1  UNL1       -0.2744
      3 N          62.3532   89.1769   10.0648 N.am    1  UNL1       -0.2639
      4 H          62.1420   89.7019    9.2592 H       1  UNL1        0.1567
      5 C          62.1502   87.6908   10.0660 C.ar    1  UNL1        0.1655
      6 N          62.7392   86.7211   11.0472 N.ar    1  UNL1       -0.2239
      7 C          62.2754   85.3444   10.6739 C.ar    1  UNL1        0.0913
      8 C          61.3998   85.4631    9.4618 C.ar    1  UNL1        0.0573
      9 S          61.3224   86.9132    9.0861 S.2     1  UNL1       -0.0508
     10 C          62.6258   84.0722   11.3872 C.ar    1  UNL1        0.0403
     11 C          62.6637   82.7018   10.7786 C.ar    1  UNL1        0.1021
     12 N          63.0611   81.7298   11.8498 N.ar    1  UNL1       -0.2269
     13 C          63.2689   82.4996   13.1204 C.ar    1  UNL1        0.1406
     14 N          63.6682   82.0692   14.5007 N.ar    1  UNL1       -0.3370
     15 C          63.7986   83.0867   15.5951 C.ar    1  UNL1        0.0802
     16 C          63.5296   84.5344   15.3092 C.ar    1  UNL1        0.0517
     17 BR         63.6599   85.5518   16.4037 Br      1  UNL1       -0.0475
     18 C          63.1302   84.9647   13.9289 C.ar    1  UNL1        0.0113
     19 C          62.9998   83.9473   12.8345 C.ar    1  UNL1        0.0374
     20 H          63.8448   81.1191   14.6883 H       1  UNL1        0.1674
     21 C          63.0813   91.3493   11.2897 C.3     1  UNL1        0.1117
     22 C          66.2702   93.6463   11.8414 C.ar    1  UNL1        0.0641
     23 C          66.7784   93.1165   13.1494 C.ar    1  UNL1        0.0158
     24 C          66.0542   91.9976   13.8376 C.ar    1  UNL1        0.0010
     25 C          64.8218   91.4085   13.2177 C.ar    1  UNL1       -0.0037
     26 C          64.3136   91.9384   11.9096 C.ar    1  UNL1       -0.0118
     27 C          65.0379   93.0573   11.2215 C.ar    1  UNL1        0.0121
     28 N          66.9944   94.7653   11.1532 N.pl3   1  UNL1       -0.2187
     29 H          67.3238   95.5326   11.6746 H       1  UNL1        0.1734
     30 C          67.4389   94.6648    8.1880 C.3     1  UNL1        0.1996
     31 S          67.2167   94.7150    9.6707 S.O2    1  UNL1        0.0558
     32 O          66.1460   95.7473    9.4751 O.2     1  UNL1       -0.1544
     33 O          68.2873   93.6828    9.8661 O.2     1  UNL1       -0.1544
@<TRIPOS>BOND
     1    30    31    1
     2    31    32    2
     3    31    33    2
     4    31    28    1
     5    28    22    1
     6    22    23   ar
     7    23    24   ar
     8    24    25   ar
     9    25    26   ar
    10    26    21    1
    11    21     1    1
    12     1     2    2
    13     1     3   am
    14     3     5    1
    15     5     6   ar
    16     6     7   ar
    17     7    10    1
    18    10    11   ar
    19    11    12   ar
    20    12    13   ar
    21    13    14   ar
    22    14    15   ar
    23    15    16   ar
    24    16    17    1
    25    16    18   ar
    26    18    19   ar
    27     7     8   ar
    28     8     9   ar
    29    26    27   ar
    30    27    22   ar
    31     9     5   ar
    32    19    10   ar
    33    19    13    1
    34    28    29    1
    35     3     4    1
    36    14    20    1
