@<TRIPOS>MOLECULE
*****
 26 28 0 0 0
SMALL
GASTEIGER

@<TRIPOS>ATOM
      1 C          65.2563   91.8870   12.3546 C.ar    1  UNL1       -0.0004
      2 C          64.9990   90.8898   13.4451 C.ar    1  UNL1       -0.0024
      3 C          63.9256   89.8556   13.2776 C.ar    1  UNL1       -0.0002
      4 C          63.1094   89.8186   12.0196 C.ar    1  UNL1        0.0030
      5 C          62.0359   88.7843   11.8522 C.ar    1  UNL1        0.0369
      6 C          61.2198   88.7473   10.5942 C.ar    1  UNL1        0.1391
      7 C          61.4771   89.7446    9.5036 C.ar    1  UNL1        0.0369
      8 C          62.5506   90.7788    9.6711 C.ar    1  UNL1        0.0031
      9 C          63.3667   90.8158   10.9291 C.ar    1  UNL1       -0.0001
     10 C          64.4401   91.8500   11.0966 C.ar    1  UNL1       -0.0024
     11 C          66.3298   92.9213   12.5220 C.3     1  UNL1        0.1240
     12 N          67.1265   92.9765   13.7917 N.ar    1  UNL1       -0.3045
     13 C          68.3335   92.1455   14.1120 C.ar    1  UNL1        0.0983
     14 C          68.8092   92.5278   15.4823 C.ar    1  UNL1        0.1193
     15 N          67.8962   93.5951   16.0088 N.ar    1  UNL1       -0.2223
     16 C          66.8563   93.8724   14.9640 C.ar    1  UNL1        0.1788
     17 C          66.0148   95.2777   11.4741 C.3     1  UNL1        0.0197
     18 C          66.6064   93.9003   11.4198 C.3     1  UNL1        0.0827
     19 N          67.4746   93.5021   10.2633 N.3     1  UNL1       -0.2696
     20 C          67.6799   94.4493    9.1184 C.3     1  UNL1        0.0897
     21 C          68.1376   92.1566   10.2516 C.3     1  UNL1        0.0897
     22 O          60.1464   87.7131   10.4267 O.3     1  UNL1       -0.4694
     23 C          60.3505   86.5666    9.4812 C.3     1  UNL1        0.2469
     24 C          59.6501   86.5545    8.1548 C.2     1  UNL1        0.0940
     25 O          59.9561   85.4790    7.1549 O.co2   1  UNL1       -0.5454
     26 O          58.6439   87.6178    7.8284 O.co2   1  UNL1       -0.5454
@<TRIPOS>UNITY_ATOM_ATTR
25 1
charge -1
@<TRIPOS>BOND
     1    17    18    1
     2    18    11    1
     3    11     1    1
     4     1     2   ar
     5     2     3   ar
     6     3     4   ar
     7     4     5   ar
     8     5     6   ar
     9     6    22    1
    10    22    23    1
    11    23    24    1
    12    24    25   ar
    13    24    26   ar
    14     6     7   ar
    15     7     8   ar
    16     8     9   ar
    17     9    10   ar
    18    11    12    1
    19    12    13   ar
    20    13    14   ar
    21    14    15   ar
    22    15    16   ar
    23    18    19    1
    24    19    20    1
    25    19    21    1
    26    10     1   ar
    27    16    12   ar
    28     9     4   ar
@<TRIPOS>MOLECULE
*****
 26 28 0 0 0
SMALL
GASTEIGER

@<TRIPOS>ATOM
      1 C          62.4972   89.0718   10.9614 C.ar    1  UNL1       -0.0004
      2 C          62.7182   90.2401   10.0470 C.ar    1  UNL1       -0.0024
      3 C          63.5799   91.3856   10.4886 C.ar    1  UNL1       -0.0002
      4 C          64.2206   91.3629   11.8447 C.ar    1  UNL1        0.0030
      5 C          65.0824   92.5086   12.2863 C.ar    1  UNL1        0.0369
      6 C          65.7231   92.4859   13.6424 C.ar    1  UNL1        0.1391
      7 C          65.5021   91.3175   14.5569 C.ar    1  UNL1        0.0369
      8 C          64.6404   90.1719   14.1152 C.ar    1  UNL1        0.0031
      9 C          63.9996   90.1947   12.7591 C.ar    1  UNL1       -0.0001
     10 C          63.1379   89.0491   12.3175 C.ar    1  UNL1       -0.0024
     11 C          61.6355   87.9262   10.5198 C.3     1  UNL1        0.1240
     12 N          62.2143   86.5456   10.4242 N.ar    1  UNL1       -0.3045
     13 C          62.3950   85.5846   11.5616 C.ar    1  UNL1        0.0983
     14 C          63.0064   84.3288   11.0148 C.ar    1  UNL1        0.1193
     15 N          63.2036   84.5137    9.5393 N.ar    1  UNL1       -0.2223
     16 C          62.7141   85.8837    9.1743 C.ar    1  UNL1        0.1788
     17 C          59.2185   88.5425   11.2467 C.3     1  UNL1        0.0197
     18 C          60.1950   88.1611   10.1738 C.3     1  UNL1        0.0827
     19 N          59.7309   88.0145    8.7549 N.3     1  UNL1       -0.2696
     20 C          59.7706   89.1927    7.8274 C.3     1  UNL1        0.0897
     21 C          59.2272   86.6898    8.2636 C.3     1  UNL1        0.0897
     22 O          66.5848   93.6314   14.0841 O.3     1  UNL1       -0.4694
     23 C          67.4318   93.5017   15.3153 C.3     1  UNL1        0.2469
     24 C          68.7265   92.7464   15.2588 C.2     1  UNL1        0.0940
     25 O          69.4396   92.3843   16.5278 O.co2   1  UNL1       -0.5454
     26 O          69.3082   92.3533   13.9332 O.co2   1  UNL1       -0.5454
@<TRIPOS>UNITY_ATOM_ATTR
25 1
charge -1
@<TRIPOS>BOND
     1    17    18    1
     2    18    11    1
     3    11     1    1
     4     1     2   ar
     5     2     3   ar
     6     3     4   ar
     7     4     5   ar
     8     5     6   ar
     9     6    22    1
    10    22    23    1
    11    23    24    1
    12    24    25   ar
    13    24    26   ar
    14     6     7   ar
    15     7     8   ar
    16     8     9   ar
    17     9    10   ar
    18    11    12    1
    19    12    13   ar
    20    13    14   ar
    21    14    15   ar
    22    15    16   ar
    23    18    19    1
    24    19    20    1
    25    19    21    1
    26    10     1   ar
    27    16    12   ar
    28     9     4   ar
@<TRIPOS>MOLECULE
*****
 26 28 0 0 0
SMALL
GASTEIGER

@<TRIPOS>ATOM
      1 C          62.4140   85.9242   11.4935 C.ar    1  UNL1       -0.0004
      2 C          62.8122   87.3299   11.8330 C.ar    1  UNL1       -0.0024
      3 C          62.2450   88.4791   11.0535 C.ar    1  UNL1       -0.0002
      4 C          61.2796   88.2226    9.9345 C.ar    1  UNL1        0.0030
      5 C          60.7124   89.3718    9.1550 C.ar    1  UNL1        0.0369
      6 C          59.7470   89.1153    8.0360 C.ar    1  UNL1        0.1391
      7 C          59.3488   87.7094    7.6965 C.ar    1  UNL1        0.0369
      8 C          59.9160   86.5603    8.4760 C.ar    1  UNL1        0.0031
      9 C          60.8814   86.8168    9.5950 C.ar    1  UNL1       -0.0001
     10 C          61.4486   85.6677   10.3745 C.ar    1  UNL1       -0.0024
     11 C          62.9812   84.7750   12.2730 C.3     1  UNL1        0.1240
     12 N          63.1170   84.8741   13.7636 N.ar    1  UNL1       -0.3045
     13 C          64.2600   85.5015   14.5050 C.ar    1  UNL1        0.0983
     14 C          63.9830   85.3784   15.9741 C.ar    1  UNL1        0.1193
     15 N          62.6687   84.6748   16.1406 N.ar    1  UNL1       -0.2223
     16 C          62.1335   84.3631   14.7744 C.ar    1  UNL1        0.1788
     17 C          63.8756   83.5972   10.1369 C.3     1  UNL1        0.0197
     18 C          63.4126   83.5267   11.5620 C.3     1  UNL1        0.0827
     19 N          63.3811   82.2079   12.2759 N.3     1  UNL1       -0.2696
     20 C          64.6496   81.6171   12.8164 C.3     1  UNL1        0.0897
     21 C          62.0812   81.4798   12.4494 C.3     1  UNL1        0.0897
     22 O          59.1798   90.2644    7.2565 O.3     1  UNL1       -0.4694
     23 C          58.9441   90.1266    5.7815 C.3     1  UNL1        0.2469
     24 C          58.1235   91.1501    5.0543 C.2     1  UNL1        0.0940
     25 O          56.6283   91.1345    5.1725 O.co2   1  UNL1       -0.5454
     26 O          58.7982   92.1893    4.2087 O.co2   1  UNL1       -0.5454
@<TRIPOS>UNITY_ATOM_ATTR
25 1
charge -1
@<TRIPOS>BOND
     1    17    18    1
     2    18    11    1
     3    11     1    1
     4     1     2   ar
     5     2     3   ar
     6     3     4   ar
     7     4     5   ar
     8     5     6   ar
     9     6    22    1
    10    22    23    1
    11    23    24    1
    12    24    25   ar
    13    24    26   ar
    14     6     7   ar
    15     7     8   ar
    16     8     9   ar
    17     9    10   ar
    18    11    12    1
    19    12    13   ar
    20    13    14   ar
    21    14    15   ar
    22    15    16   ar
    23    18    19    1
    24    19    20    1
    25    19    21    1
    26    10     1   ar
    27    16    12   ar
    28     9     4   ar
@<TRIPOS>MOLECULE
*****
 26 28 0 0 0
SMALL
GASTEIGER

@<TRIPOS>ATOM
      1 C          62.7492   85.7880   11.9725 C.ar    1  UNL1       -0.0004
      2 C          63.0980   87.2035   12.3257 C.ar    1  UNL1       -0.0024
      3 C          62.5352   88.3376   11.5214 C.ar    1  UNL1       -0.0002
      4 C          61.6236   88.0563   10.3640 C.ar    1  UNL1        0.0030
      5 C          61.0607   89.1906    9.5597 C.ar    1  UNL1        0.0369
      6 C          60.1491   88.9093    8.4022 C.ar    1  UNL1        0.1391
      7 C          59.8002   87.4938    8.0490 C.ar    1  UNL1        0.0369
      8 C          60.3630   86.3596    8.8533 C.ar    1  UNL1        0.0031
      9 C          61.2747   86.6409   10.0108 C.ar    1  UNL1       -0.0001
     10 C          61.8375   85.5068   10.8150 C.ar    1  UNL1       -0.0024
     11 C          63.3120   84.6538   12.7768 C.3     1  UNL1        0.1240
     12 N          63.2113   83.2480   12.2635 N.ar    1  UNL1       -0.3045
     13 C          62.5158   82.1078   12.9462 C.ar    1  UNL1        0.0983
     14 C          62.6630   80.8906   12.0820 C.ar    1  UNL1        0.1193
     15 N          63.4496   81.2786   10.8651 N.ar    1  UNL1       -0.2223
     16 C          63.7884   82.7355   10.9773 C.ar    1  UNL1        0.1788
     17 C          65.4698   84.8603   14.2091 C.3     1  UNL1        0.0197
     18 C          63.9755   84.9254   14.0943 C.3     1  UNL1        0.0827
     19 N          63.1449   85.2621   15.2971 N.3     1  UNL1       -0.2696
     20 C          61.9319   84.4425   15.6242 C.3     1  UNL1        0.0897
     21 C          63.5272   86.4184   16.1728 C.3     1  UNL1        0.0897
     22 O          59.5862   90.0434    7.5980 O.3     1  UNL1       -0.4694
     23 C          59.0757   89.7972    6.2091 C.3     1  UNL1        0.2469
     24 C          58.5193   90.9326    5.4023 C.2     1  UNL1        0.0940
     25 O          57.0360   91.0739    5.2295 O.co2   1  UNL1       -0.5454
     26 O          59.4463   91.9269    4.7681 O.co2   1  UNL1       -0.5454
@<TRIPOS>UNITY_ATOM_ATTR
25 1
charge -1
@<TRIPOS>BOND
     1    17    18    1
     2    18    11    1
     3    11     1    1
     4     1     2   ar
     5     2     3   ar
     6     3     4   ar
     7     4     5   ar
     8     5     6   ar
     9     6    22    1
    10    22    23    1
    11    23    24    1
    12    24    25   ar
    13    24    26   ar
    14     6     7   ar
    15     7     8   ar
    16     8     9   ar
    17     9    10   ar
    18    11    12    1
    19    12    13   ar
    20    13    14   ar
    21    14    15   ar
    22    15    16   ar
    23    18    19    1
    24    19    20    1
    25    19    21    1
    26    10     1   ar
    27    16    12   ar
    28     9     4   ar
@<TRIPOS>MOLECULE
*****
 26 28 0 0 0
SMALL
GASTEIGER

@<TRIPOS>ATOM
      1 C          62.4990   88.3652   10.8230 C.ar    1  UNL1       -0.0004
      2 C          62.6065   89.6564   10.0674 C.ar    1  UNL1       -0.0024
      3 C          63.2746   90.8416   10.6991 C.ar    1  UNL1       -0.0002
      4 C          63.8351   90.7355   12.0864 C.ar    1  UNL1        0.0030
      5 C          64.5031   91.9207   12.7181 C.ar    1  UNL1        0.0369
      6 C          65.0636   91.8146   14.1054 C.ar    1  UNL1        0.1391
      7 C          64.9560   90.5232   14.8610 C.ar    1  UNL1        0.0369
      8 C          64.2880   89.3381   14.2293 C.ar    1  UNL1        0.0031
      9 C          63.7275   89.4442   12.8420 C.ar    1  UNL1       -0.0001
     10 C          63.0594   88.2590   12.2103 C.ar    1  UNL1       -0.0024
     11 C          61.8309   87.1799   10.1914 C.3     1  UNL1        0.1240
     12 N          60.7286   87.3833    9.1946 N.ar    1  UNL1       -0.3045
     13 C          59.9793   86.3009    8.4756 C.ar    1  UNL1        0.0983
     14 C          58.9696   86.9535    7.5784 C.ar    1  UNL1        0.1193
     15 N          59.0949   88.4391    7.7430 N.ar    1  UNL1       -0.2223
     16 C          60.1820   88.7048    8.7419 C.ar    1  UNL1        0.1788
     17 C          61.9178   85.2263   11.9019 C.3     1  UNL1        0.0197
     18 C          62.2651   85.7914   10.5565 C.3     1  UNL1        0.0827
     19 N          63.0467   84.9678    9.5762 N.3     1  UNL1       -0.2696
     20 C          63.1546   85.4068    8.1458 C.3     1  UNL1        0.0897
     21 C          63.7203   83.7054   10.0261 C.3     1  UNL1        0.0897
     22 O          65.7317   92.9997   14.7371 O.3     1  UNL1       -0.4694
     23 C          66.8633   92.7975   15.7008 C.3     1  UNL1        0.2469
     24 C          68.2663   93.1351   15.2915 C.2     1  UNL1        0.0940
     25 O          69.0620   94.1263   16.0880 O.co2   1  UNL1       -0.5454
     26 O          68.8737   92.4814   14.0859 O.co2   1  UNL1       -0.5454
@<TRIPOS>UNITY_ATOM_ATTR
25 1
charge -1
@<TRIPOS>BOND
     1    17    18    1
     2    18    11    1
     3    11     1    1
     4     1     2   ar
     5     2     3   ar
     6     3     4   ar
     7     4     5   ar
     8     5     6   ar
     9     6    22    1
    10    22    23    1
    11    23    24    1
    12    24    25   ar
    13    24    26   ar
    14     6     7   ar
    15     7     8   ar
    16     8     9   ar
    17     9    10   ar
    18    11    12    1
    19    12    13   ar
    20    13    14   ar
    21    14    15   ar
    22    15    16   ar
    23    18    19    1
    24    19    20    1
    25    19    21    1
    26    10     1   ar
    27    16    12   ar
    28     9     4   ar
@<TRIPOS>MOLECULE
*****
 26 28 0 0 0
SMALL
GASTEIGER

@<TRIPOS>ATOM
      1 C          62.6631   88.9490   11.5183 C.ar    1  UNL1       -0.0004
      2 C          63.1010   88.7330   12.9365 C.ar    1  UNL1       -0.0024
      3 C          64.0285   89.7125   13.5925 C.ar    1  UNL1       -0.0002
      4 C          64.5180   90.9080   12.8302 C.ar    1  UNL1        0.0030
      5 C          65.4456   91.8875   13.4863 C.ar    1  UNL1        0.0369
      6 C          65.9351   93.0830   12.7240 C.ar    1  UNL1        0.1391
      7 C          65.4971   93.2991   11.3057 C.ar    1  UNL1        0.0369
      8 C          64.5696   92.3196   10.6497 C.ar    1  UNL1        0.0031
      9 C          64.0801   91.1241   11.4120 C.ar    1  UNL1       -0.0001
     10 C          63.1526   90.1446   10.7560 C.ar    1  UNL1       -0.0024
     11 C          61.7355   87.9695   10.8622 C.3     1  UNL1        0.1240
     12 N          62.2304   86.6044   10.4860 N.ar    1  UNL1       -0.3045
     13 C          62.6362   86.1615    9.1116 C.ar    1  UNL1        0.0983
     14 C          63.0629   84.7258    9.1943 C.ar    1  UNL1        0.1193
     15 N          62.9208   84.2814   10.6199 N.ar    1  UNL1       -0.2223
     16 C          62.4063   85.4425   11.4182 C.ar    1  UNL1        0.1788
     17 C          59.6037   87.7892    9.3881 C.3     1  UNL1        0.0197
     18 C          60.3132   88.3552   10.5825 C.3     1  UNL1        0.0827
     19 N          59.6004   89.3067   11.4970 N.3     1  UNL1       -0.2696
     20 C          59.5800   90.7738   11.1847 C.3     1  UNL1        0.0897
     21 C          58.9079   88.7913   12.7237 C.3     1  UNL1        0.0897
     22 O          66.8626   94.0625   13.3800 O.3     1  UNL1       -0.4694
     23 C          67.2650   93.8708   14.8122 C.3     1  UNL1        0.2469
     24 C          68.3146   92.8599   15.1675 C.2     1  UNL1        0.0940
     25 O          68.2002   92.0758   16.4411 O.co2   1  UNL1       -0.5454
     26 O          69.4787   92.6331   14.2492 O.co2   1  UNL1       -0.5454
@<TRIPOS>UNITY_ATOM_ATTR
25 1
charge -1
@<TRIPOS>BOND
     1    17    18    1
     2    18    11    1
     3    11     1    1
     4     1     2   ar
     5     2     3   ar
     6     3     4   ar
     7     4     5   ar
     8     5     6   ar
     9     6    22    1
    10    22    23    1
    11    23    24    1
    12    24    25   ar
    13    24    26   ar
    14     6     7   ar
    15     7     8   ar
    16     8     9   ar
    17     9    10   ar
    18    11    12    1
    19    12    13   ar
    20    13    14   ar
    21    14    15   ar
    22    15    16   ar
    23    18    19    1
    24    19    20    1
    25    19    21    1
    26    10     1   ar
    27    16    12   ar
    28     9     4   ar
@<TRIPOS>MOLECULE
*****
 26 28 0 0 0
SMALL
GASTEIGER

@<TRIPOS>ATOM
      1 C          63.5131   85.6442   12.8804 C.ar    1  UNL1       -0.0004
      2 C          64.2033   85.5841   14.2108 C.ar    1  UNL1       -0.0024
      3 C          64.5686   86.8520   14.9241 C.ar    1  UNL1       -0.0002
      4 C          64.2436   88.1801   14.3071 C.ar    1  UNL1        0.0030
      5 C          64.6089   89.4480   15.0205 C.ar    1  UNL1        0.0369
      6 C          64.2839   90.7761   14.4034 C.ar    1  UNL1        0.1391
      7 C          63.5937   90.8361   13.0730 C.ar    1  UNL1        0.0369
      8 C          63.2284   89.5682   12.3596 C.ar    1  UNL1        0.0031
      9 C          63.5534   88.2402   12.9767 C.ar    1  UNL1       -0.0001
     10 C          63.1882   86.9722   12.2633 C.ar    1  UNL1       -0.0024
     11 C          63.1479   84.3762   12.1670 C.3     1  UNL1        0.1240
     12 N          62.6420   83.1973   12.9444 N.ar    1  UNL1       -0.3045
     13 C          62.3613   81.8314   12.3916 C.ar    1  UNL1        0.0983
     14 C          61.8739   80.9672   13.5166 C.ar    1  UNL1        0.1193
     15 N          61.8534   81.7990   14.7647 N.ar    1  UNL1       -0.2223
     16 C          62.3281   83.1773   14.4110 C.ar    1  UNL1        0.1788
     17 C          64.2358   83.2946   10.0702 C.3     1  UNL1        0.0197
     18 C          63.2884   84.2872   10.6763 C.3     1  UNL1        0.0827
     19 N          62.4816   85.1907    9.7916 N.3     1  UNL1       -0.2696
     20 C          62.9622   85.5090    8.4067 C.3     1  UNL1        0.0897
     21 C          61.1942   85.7759   10.2917 C.3     1  UNL1        0.0897
     22 O          64.6492   92.0440   15.1168 O.3     1  UNL1       -0.4694
     23 C          66.0864   92.4622   15.2146 C.3     1  UNL1        0.2469
     24 C          66.8382   92.8578   13.9784 C.2     1  UNL1        0.0940
     25 O          68.2645   92.4294   13.7988 O.co2   1  UNL1       -0.5454
     26 O          66.1638   93.6816   12.9218 O.co2   1  UNL1       -0.5454
@<TRIPOS>UNITY_ATOM_ATTR
25 1
charge -1
@<TRIPOS>BOND
     1    17    18    1
     2    18    11    1
     3    11     1    1
     4     1     2   ar
     5     2     3   ar
     6     3     4   ar
     7     4     5   ar
     8     5     6   ar
     9     6    22    1
    10    22    23    1
    11    23    24    1
    12    24    25   ar
    13    24    26   ar
    14     6     7   ar
    15     7     8   ar
    16     8     9   ar
    17     9    10   ar
    18    11    12    1
    19    12    13   ar
    20    13    14   ar
    21    14    15   ar
    22    15    16   ar
    23    18    19    1
    24    19    20    1
    25    19    21    1
    26    10     1   ar
    27    16    12   ar
    28     9     4   ar
@<TRIPOS>MOLECULE
*****
 26 28 0 0 0
SMALL
GASTEIGER

@<TRIPOS>ATOM
      1 C          63.0255   85.2648   12.7322 C.ar    1  UNL1       -0.0004
      2 C          62.3534   85.9272   11.5662 C.ar    1  UNL1       -0.0024
      3 C          62.4308   87.4162   11.4027 C.ar    1  UNL1       -0.0002
      4 C          63.1803   88.2429   12.4052 C.ar    1  UNL1        0.0030
      5 C          63.2577   89.7320   12.2416 C.ar    1  UNL1        0.0369
      6 C          64.0071   90.5586   13.2441 C.ar    1  UNL1        0.1391
      7 C          64.6792   89.8962   14.4101 C.ar    1  UNL1        0.0369
      8 C          64.6018   88.4072   14.5736 C.ar    1  UNL1        0.0031
      9 C          63.8524   87.5805   13.5712 C.ar    1  UNL1       -0.0001
     10 C          63.7750   86.0915   13.7347 C.ar    1  UNL1       -0.0024
     11 C          62.9481   83.7757   12.8957 C.3     1  UNL1        0.1240
     12 N          63.3672   82.8750   11.7719 N.ar    1  UNL1       -0.3045
     13 C          62.6734   81.6152   11.3461 C.ar    1  UNL1        0.0983
     14 C          63.4311   81.0375   10.1875 C.ar    1  UNL1        0.1193
     15 N          64.5932   81.9404    9.8973 N.ar    1  UNL1       -0.2223
     16 C          64.5537   83.0760   10.8765 C.ar    1  UNL1        0.1788
     17 C          62.0918   84.0861   15.3290 C.3     1  UNL1        0.0197
     18 C          62.4516   83.1874   14.1831 C.3     1  UNL1        0.0827
     19 N          62.3150   81.7004   14.3247 N.3     1  UNL1       -0.2696
     20 C          63.5342   80.8516   14.5327 C.3     1  UNL1        0.0897
     21 C          60.9592   81.0621   14.2584 C.3     1  UNL1        0.0897
     22 O          64.0845   92.0476   13.0806 O.3     1  UNL1       -0.4694
     23 C          65.2843   92.6693   12.4291 C.3     1  UNL1        0.2469
     24 C          66.4679   93.0661   13.2607 C.2     1  UNL1        0.0940
     25 O          66.3787   94.2522   14.1745 O.co2   1  UNL1       -0.5454
     26 O          67.7407   92.2767   13.1783 O.co2   1  UNL1       -0.5454
@<TRIPOS>UNITY_ATOM_ATTR
25 1
charge -1
@<TRIPOS>BOND
     1    17    18    1
     2    18    11    1
     3    11     1    1
     4     1     2   ar
     5     2     3   ar
     6     3     4   ar
     7     4     5   ar
     8     5     6   ar
     9     6    22    1
    10    22    23    1
    11    23    24    1
    12    24    25   ar
    13    24    26   ar
    14     6     7   ar
    15     7     8   ar
    16     8     9   ar
    17     9    10   ar
    18    11    12    1
    19    12    13   ar
    20    13    14   ar
    21    14    15   ar
    22    15    16   ar
    23    18    19    1
    24    19    20    1
    25    19    21    1
    26    10     1   ar
    27    16    12   ar
    28     9     4   ar
@<TRIPOS>MOLECULE
*****
 26 28 0 0 0
SMALL
GASTEIGER

@<TRIPOS>ATOM
      1 C          63.1655   87.3499   12.3918 C.ar    1  UNL1       -0.0004
      2 C          63.7245   87.0682   13.7549 C.ar    1  UNL1       -0.0024
      3 C          64.3800   88.1665   14.5384 C.ar    1  UNL1       -0.0002
      4 C          64.4766   89.5466   13.9587 C.ar    1  UNL1        0.0030
      5 C          65.1322   90.6450   14.7423 C.ar    1  UNL1        0.0369
      6 C          65.2288   92.0251   14.1627 C.ar    1  UNL1        0.1391
      7 C          64.6698   92.3068   12.7994 C.ar    1  UNL1        0.0369
      8 C          64.0143   91.2085   12.0160 C.ar    1  UNL1        0.0031
      9 C          63.9177   89.8284   12.5956 C.ar    1  UNL1       -0.0001
     10 C          63.2622   88.7300   11.8121 C.ar    1  UNL1       -0.0024
     11 C          62.5100   86.2516   11.6082 C.3     1  UNL1        0.1240
     12 N          62.4869   84.8536   12.1514 N.ar    1  UNL1       -0.3045
     13 C          62.4116   84.4716   13.6000 C.ar    1  UNL1        0.0983
     14 C          62.4132   82.9741   13.6853 C.ar    1  UNL1        0.1193
     15 N          62.4896   82.4304   12.2893 N.ar    1  UNL1       -0.2223
     16 C          62.5351   83.5920   11.3414 C.ar    1  UNL1        0.1788
     17 C          62.5766   86.1627    9.0125 C.3     1  UNL1        0.0197
     18 C          61.8775   86.5512   10.2815 C.3     1  UNL1        0.0827
     19 N          60.5459   87.2394   10.2238 N.3     1  UNL1       -0.2696
     20 C          59.7275   87.1852    8.9678 C.3     1  UNL1        0.0897
     21 C          60.0328   87.9818   11.4219 C.3     1  UNL1        0.0897
     22 O          65.8843   93.1234   14.9461 O.3     1  UNL1       -0.4694
     23 C          67.0492   92.8151   15.8396 C.3     1  UNL1        0.2469
     24 C          68.3862   93.4398   15.5712 C.2     1  UNL1        0.0940
     25 O          69.3053   92.8353   14.5515 O.co2   1  UNL1       -0.5454
     26 O          68.8041   94.6689   16.3226 O.co2   1  UNL1       -0.5454
@<TRIPOS>UNITY_ATOM_ATTR
25 1
charge -1
@<TRIPOS>BOND
     1    17    18    1
     2    18    11    1
     3    11     1    1
     4     1     2   ar
     5     2     3   ar
     6     3     4   ar
     7     4     5   ar
     8     5     6   ar
     9     6    22    1
    10    22    23    1
    11    23    24    1
    12    24    25   ar
    13    24    26   ar
    14     6     7   ar
    15     7     8   ar
    16     8     9   ar
    17     9    10   ar
    18    11    12    1
    19    12    13   ar
    20    13    14   ar
    21    14    15   ar
    22    15    16   ar
    23    18    19    1
    24    19    20    1
    25    19    21    1
    26    10     1   ar
    27    16    12   ar
    28     9     4   ar
