@<TRIPOS>MOLECULE
*****
 38 44 0 0 0
SMALL
GASTEIGER

@<TRIPOS>ATOM
      1 N          62.6487   87.5202   10.5290 N.ar    1  UNL1       -0.3274
      2 C          63.0018   88.8653   11.0913 C.ar    1  UNL1        0.0599
      3 C          62.9379   90.2454   10.5074 C.ar    1  UNL1        0.0185
      4 C          63.3672   91.4267   11.3260 C.ar    1  UNL1        0.0162
      5 C          63.8606   91.2278   12.7286 C.ar    1  UNL1        0.0506
      6 C          63.9245   89.8476   13.3125 C.ar    1  UNL1        0.0161
      7 C          63.4951   88.6664   12.4938 C.ar    1  UNL1        0.0182
      8 C          63.4469   87.1984   12.7983 C.ar    1  UNL1        0.0147
      9 C          63.8117   86.4152   14.0245 C.ar    1  UNL1        0.0032
     10 C          63.6535   84.9236   14.0363 C.ar    1  UNL1        0.0509
     11 C          63.1304   84.2152   12.8220 C.ar    1  UNL1        0.0042
     12 C          62.7655   84.9984   11.5959 C.ar    1  UNL1       -0.0058
     13 C          62.9238   86.4900   11.5840 C.ar    1  UNL1        0.0556
     14 C          62.2424   84.2900   10.3816 C.3     1  UNL1        0.0342
     15 C          62.0842   82.7985   10.3934 C.3     1  UNL1        0.0524
     16 C          62.4490   82.0153   11.6196 C.ar    1  UNL1        0.0803
     17 N          62.4008   80.5473   11.9241 N.ar    1  UNL1       -0.1736
     18 N          62.8941   80.3484   13.3266 N.ar    1  UNL1       -0.2477
     19 C          63.0134   79.0350   14.0413 C.3     1  UNL1        0.1537
     20 C          63.2472   81.6935   13.8888 C.ar    1  UNL1        0.0963
     21 C          62.9721   82.7236   12.8338 C.ar    1  UNL1        0.0339
     22 C          64.0922   84.4215   15.3801 C.2     1  UNL1        0.2458
     23 O          64.1001   82.9896   15.8267 O.2     1  UNL1       -0.2701
     24 N          64.5215   85.6029   16.1987 N.am    1  UNL1       -0.2969
     25 C          64.3482   86.8350   15.3609 C.3     1  UNL1        0.1168
     26 H          64.8580   85.5745   17.1235 H       1  UNL1        0.1501
     27 N          64.2899   92.4092   13.5472 N.pl3   1  UNL1       -0.2825
     28 H          63.6788   93.1712   13.6701 H       1  UNL1        0.1551
     29 C          65.6504   92.4295   14.1785 C.ar    1  UNL1        0.2207
     30 N          65.7964   92.7556   15.6354 N.ar    1  UNL1       -0.2120
     31 C          67.1569   92.7759   16.2667 C.ar    1  UNL1        0.1034
     32 C          68.3714   92.4702   15.4413 C.ar    1  UNL1        0.0414
     33 C          68.2255   92.1440   13.9844 C.ar    1  UNL1        0.1034
     34 N          66.8650   92.1237   13.3531 N.ar    1  UNL1       -0.2120
     35 C          62.1144   87.2524    9.1533 C.3     1  UNL1        0.1059
     36 C          59.6904   87.9194    9.8087 C.3     1  UNL1        0.0020
     37 C          60.6345   87.1540    8.9294 C.3     1  UNL1        0.0226
     38 C          60.0985   86.2903    7.8263 C.3     1  UNL1        0.0020
@<TRIPOS>BOND
     1    36    37    1
     2    37    38    1
     3    37    35    1
     4    35     1    1
     5     1     2   ar
     6     2     3   ar
     7     3     4   ar
     8     4     5   ar
     9     5    27    1
    10    27    29    1
    11    29    30   ar
    12    30    31   ar
    13    31    32   ar
    14    32    33   ar
    15    33    34   ar
    16     5     6   ar
    17     6     7   ar
    18     7     8   ar
    19     8     9   ar
    20     9    10   ar
    21    10    11   ar
    22    11    12   ar
    23    12    13   ar
    24    12    14    1
    25    14    15    1
    26    15    16    1
    27    16    17   ar
    28    17    18   ar
    29    18    19    1
    30    18    20   ar
    31    20    21   ar
    32    10    22    1
    33    22    23    2
    34    22    24   am
    35    24    25    1
    36    13     1   ar
    37    21    16   ar
    38     7     2   ar
    39    13     8   ar
    40    34    29   ar
    41    25     9    1
    42    21    11    1
    43    27    28    1
    44    24    26    1
@<TRIPOS>MOLECULE
*****
 38 44 0 0 0
SMALL
GASTEIGER

@<TRIPOS>ATOM
      1 N          63.9567   87.8158   14.5806 N.ar    1  UNL1       -0.3274
      2 C          63.9764   89.1062   13.8161 C.ar    1  UNL1        0.0599
      3 C          64.2462   90.5197   14.2394 C.ar    1  UNL1        0.0185
      4 C          64.1936   91.6279   13.2300 C.ar    1  UNL1        0.0162
      5 C          63.8713   91.3227   11.7972 C.ar    1  UNL1        0.0506
      6 C          63.6015   89.9092   11.3738 C.ar    1  UNL1        0.0161
      7 C          63.6540   88.8010   12.3833 C.ar    1  UNL1        0.0182
      8 C          63.4351   87.3220   12.2623 C.ar    1  UNL1        0.0147
      9 C          63.0897   86.4510   11.0910 C.ar    1  UNL1        0.0032
     10 C          62.9312   84.9711   11.2778 C.ar    1  UNL1        0.0509
     11 C          63.1183   84.3622   12.6358 C.ar    1  UNL1        0.0042
     12 C          63.4637   85.2332   13.8071 C.ar    1  UNL1       -0.0058
     13 C          63.6222   86.7131   13.6204 C.ar    1  UNL1        0.0556
     14 C          63.6508   84.6243   15.1651 C.3     1  UNL1        0.0342
     15 C          63.4923   83.1445   15.3519 C.3     1  UNL1        0.0524
     16 C          63.1469   82.2735   14.1806 C.ar    1  UNL1        0.0803
     17 N          62.9280   80.7945   14.0597 N.ar    1  UNL1       -0.1736
     18 N          62.6056   80.4893   12.6268 N.ar    1  UNL1       -0.2477
     19 C          62.3147   79.1319   12.0584 C.3     1  UNL1        0.1537
     20 C          62.6253   81.7797   11.8623 C.ar    1  UNL1        0.0963
     21 C          62.9598   82.8823   12.8226 C.ar    1  UNL1        0.0339
     22 C          62.5898   84.3698    9.9466 C.2     1  UNL1        0.2458
     23 O          62.3441   82.9156    9.6729 O.2     1  UNL1       -0.2701
     24 N          62.5373   85.4781    8.9371 N.am    1  UNL1       -0.2969
     25 C          62.8462   86.7643    9.6444 C.3     1  UNL1        0.1168
     26 H          62.3355   85.3788    7.9786 H       1  UNL1        0.1501
     27 N          63.8188   92.4310   10.7877 N.pl3   1  UNL1       -0.2825
     28 H          62.9601   92.6826   10.3772 H       1  UNL1        0.1551
     29 C          65.0746   93.1559   10.4038 C.ar    1  UNL1        0.2207
     30 N          65.0741   94.6521   10.2970 N.ar    1  UNL1       -0.2120
     31 C          66.3299   95.3770    9.9130 C.ar    1  UNL1        0.1034
     32 C          67.5862   94.6058    9.6359 C.ar    1  UNL1        0.0414
     33 C          67.5867   93.1096    9.7428 C.ar    1  UNL1        0.1034
     34 N          66.3309   92.3847   10.1267 N.ar    1  UNL1       -0.2120
     35 C          64.2245   87.6562   16.0479 C.3     1  UNL1        0.1059
     36 C          62.7203   89.4732   17.1370 C.3     1  UNL1        0.0020
     37 C          63.1776   88.0473   17.0483 C.3     1  UNL1        0.0226
     38 C          62.5878   87.0125   17.9601 C.3     1  UNL1        0.0020
@<TRIPOS>BOND
     1    36    37    1
     2    37    38    1
     3    37    35    1
     4    35     1    1
     5     1     2   ar
     6     2     3   ar
     7     3     4   ar
     8     4     5   ar
     9     5    27    1
    10    27    29    1
    11    29    30   ar
    12    30    31   ar
    13    31    32   ar
    14    32    33   ar
    15    33    34   ar
    16     5     6   ar
    17     6     7   ar
    18     7     8   ar
    19     8     9   ar
    20     9    10   ar
    21    10    11   ar
    22    11    12   ar
    23    12    13   ar
    24    12    14    1
    25    14    15    1
    26    15    16    1
    27    16    17   ar
    28    17    18   ar
    29    18    19    1
    30    18    20   ar
    31    20    21   ar
    32    10    22    1
    33    22    23    2
    34    22    24   am
    35    24    25    1
    36    13     1   ar
    37    21    16   ar
    38     7     2   ar
    39    13     8   ar
    40    34    29   ar
    41    25     9    1
    42    21    11    1
    43    27    28    1
    44    24    26    1
