@<TRIPOS>MOLECULE
*****
 42 46 0 0 0
SMALL
GASTEIGER

@<TRIPOS>ATOM
      1 C          62.6685   89.9999   11.7681 C.2     1  UNL1        0.2411
      2 O          62.3897   90.8489   12.9728 O.2     1  UNL1       -0.2733
      3 N          63.6155   90.4856   10.7111 N.am    1  UNL1       -0.2966
      4 H          63.7985   89.9284    9.9204 H       1  UNL1        0.1499
      5 C          62.0002   88.6651   11.6203 C.3     1  UNL1        0.1555
      6 C          63.5123   87.2964   13.2298 C.2     1  UNL1        0.4017
      7 O          63.5145   88.4402   14.2003 O.2     1  UNL1       -0.2264
      8 N          62.7551   87.4089   11.9398 N.am    1  UNL1       -0.2637
      9 H          62.7536   86.6583   11.3028 H       1  UNL1        0.1532
     10 O          64.2672   86.0403   13.5492 O.3     1  UNL1       -0.4419
     11 C          63.2022   84.3005   12.9671 C.3     1  UNL1        0.0437
     12 C          63.5855   84.9204   14.2781 C.3     1  UNL1        0.1378
     13 C          63.9688   85.5403   15.5890 C.3     1  UNL1        0.0437
     14 C          62.9038   83.8005   15.0069 C.3     1  UNL1        0.0437
     15 C          60.5770   88.5866   11.1530 C.3     1  UNL1        0.0577
     16 C          60.2683   88.1032    9.7669 C.ar    1  UNL1        0.0097
     17 C          59.7888   89.0697    8.7250 C.ar    1  UNL1        0.0277
     18 C          59.4801   88.5863    7.3390 C.ar    1  UNL1        0.1400
     19 F          59.0006   89.5529    6.2969 F       1  UNL1       -0.2042
     20 C          59.6509   87.1363    6.9950 C.ar    1  UNL1        0.0319
     21 C          60.1304   86.1697    8.0370 C.ar    1  UNL1        0.0316
     22 C          60.4391   86.6532    9.4229 C.ar    1  UNL1        0.1363
     23 F          60.9186   85.6866   10.4650 F       1  UNL1       -0.2045
     24 C          64.2838   91.8203   10.8589 C.3     1  UNL1        0.1543
     25 C          65.1760   92.0863   12.0350 C.ar    1  UNL1        0.1417
     26 N          64.7877   91.9736   13.4795 N.ar    1  UNL1       -0.2276
     27 C          65.9848   92.3293   14.3104 C.ar    1  UNL1        0.1167
     28 C          66.1934   92.3934   15.7944 C.ar    1  UNL1        0.0238
     29 C          67.5301   92.7900   16.3474 C.ar    1  UNL1        0.0223
     30 C          68.6582   93.1225   15.4165 C.ar    1  UNL1        0.1006
     31 N          68.4497   93.0585   13.9324 N.ar    1  UNL1       -0.2252
     32 C          67.1130   92.6619   13.3794 C.ar    1  UNL1        0.1626
     33 N          66.6131   92.5117   11.9732 N.ar    1  UNL1       -0.2990
     34 C          67.4103   92.7458   10.7243 C.3     1  UNL1        0.0898
     35 C          68.3770   92.5041    9.6032 C.3     1  UNL1        0.0273
     36 C          68.1753   91.4571   10.6582 C.3     1  UNL1        0.0273
     37 C          66.9223   94.1157   10.3567 C.ar    1  UNL1       -0.0037
     38 C          66.2928   94.9922   11.3985 C.ar    1  UNL1       -0.0025
     39 C          65.8047   96.3621   11.0309 C.ar    1  UNL1       -0.0003
     40 C          65.9463   96.8555    9.6214 C.ar    1  UNL1       -0.0000
     41 C          66.5758   95.9789    8.5796 C.ar    1  UNL1       -0.0003
     42 C          67.0638   94.6090    8.9472 C.ar    1  UNL1       -0.0025
@<TRIPOS>BOND
     1    11    12    1
     2    12    13    1
     3    12    14    1
     4    12    10    1
     5    10     6    1
     6     6     7    2
     7     6     8   am
     8     8     5    1
     9     5    15    1
    10    15    16    1
    11    16    17   ar
    12    17    18   ar
    13    18    19    1
    14    18    20   ar
    15    20    21   ar
    16    21    22   ar
    17    22    23    1
    18     5     1    1
    19     1     2    2
    20     1     3   am
    21     3    24    1
    22    24    25    1
    23    25    26   ar
    24    26    27   ar
    25    27    28   ar
    26    28    29   ar
    27    29    30   ar
    28    30    31   ar
    29    31    32   ar
    30    32    33   ar
    31    33    34    1
    32    34    37    1
    33    37    38   ar
    34    38    39   ar
    35    39    40   ar
    36    40    41   ar
    37    41    42   ar
    38    34    35    1
    39    35    36    1
    40    22    16   ar
    41    33    25   ar
    42    36    34    1
    43    32    27   ar
    44    42    37   ar
    45     8     9    1
    46     3     4    1
@<TRIPOS>MOLECULE
*****
 42 46 0 0 0
SMALL
GASTEIGER

@<TRIPOS>ATOM
      1 C          63.4979   86.9233   13.3073 C.2     1  UNL1        0.2411
      2 O          64.2662   86.5999   14.5543 O.2     1  UNL1       -0.2733
      3 N          63.2958   88.3528   12.9003 N.am    1  UNL1       -0.2966
      4 H          62.7915   88.5650   12.0818 H       1  UNL1        0.1499
      5 C          62.9316   85.8171   12.4671 C.3     1  UNL1        0.1555
      6 C          61.4648   86.2324   10.3633 C.2     1  UNL1        0.4017
      7 O          62.7019   86.3388    9.5218 O.2     1  UNL1       -0.2264
      8 N          61.5797   85.9715   11.8360 N.am    1  UNL1       -0.2637
      9 H          60.7677   85.9016   12.3884 H       1  UNL1        0.1532
     10 O          60.1128   86.3868    9.7322 O.3     1  UNL1       -0.4419
     11 C          59.6293   86.4380    7.6674 C.3     1  UNL1        0.0437
     12 C          59.8748   87.4727    8.7252 C.3     1  UNL1        0.1378
     13 C          60.1204   88.5074    9.7830 C.3     1  UNL1        0.0437
     14 C          59.6368   88.5587    7.7182 C.3     1  UNL1        0.0437
     15 C          63.7173   84.5566   12.2582 C.3     1  UNL1        0.0577
     16 C          63.1328   83.2337   12.6565 C.ar    1  UNL1        0.0097
     17 C          63.2340   82.0593   11.7290 C.ar    1  UNL1        0.0277
     18 C          62.6496   80.7365   12.1273 C.ar    1  UNL1        0.1400
     19 F          62.7508   79.5620   11.1998 F       1  UNL1       -0.2042
     20 C          61.9639   80.5883   13.4531 C.ar    1  UNL1        0.0319
     21 C          61.8627   81.7627   14.3806 C.ar    1  UNL1        0.0316
     22 C          62.4471   83.0855   13.9823 C.ar    1  UNL1        0.1363
     23 F          62.3460   84.2600   14.9098 F       1  UNL1       -0.2045
     24 C          63.8621   89.4590   13.7404 C.3     1  UNL1        0.1543
     25 C          64.3758   90.7083   13.0882 C.ar    1  UNL1        0.1417
     26 N          64.3101   91.0299   11.6246 N.ar    1  UNL1       -0.2276
     27 C          64.9392   92.3757   11.4170 C.ar    1  UNL1        0.1167
     28 C          65.1568   93.2025   10.1845 C.ar    1  UNL1        0.0238
     29 C          65.8290   94.5395   10.2874 C.ar    1  UNL1        0.0223
     30 C          66.2836   95.0496   11.6228 C.ar    1  UNL1        0.1006
     31 N          66.0659   94.2228   12.8552 N.ar    1  UNL1       -0.2252
     32 C          65.3937   92.8858   12.7523 C.ar    1  UNL1        0.1626
     33 N          65.0456   91.8553   13.7852 N.ar    1  UNL1       -0.2990
     34 C          65.3191   91.9544   15.2567 C.3     1  UNL1        0.0898
     35 C          65.0834   91.9439   16.7380 C.3     1  UNL1        0.0273
     36 C          63.9479   91.6731   15.7961 C.3     1  UNL1        0.0273
     37 C          66.7852   92.2702   15.2284 C.ar    1  UNL1       -0.0037
     38 C          67.6936   91.5312   14.2911 C.ar    1  UNL1       -0.0025
     39 C          69.1597   91.8470   14.2628 C.ar    1  UNL1       -0.0003
     40 C          69.7174   92.9018   15.1719 C.ar    1  UNL1       -0.0000
     41 C          68.8089   93.6408   16.1092 C.ar    1  UNL1       -0.0003
     42 C          67.3428   93.3250   16.1375 C.ar    1  UNL1       -0.0025
@<TRIPOS>BOND
     1    11    12    1
     2    12    13    1
     3    12    14    1
     4    12    10    1
     5    10     6    1
     6     6     7    2
     7     6     8   am
     8     8     5    1
     9     5    15    1
    10    15    16    1
    11    16    17   ar
    12    17    18   ar
    13    18    19    1
    14    18    20   ar
    15    20    21   ar
    16    21    22   ar
    17    22    23    1
    18     5     1    1
    19     1     2    2
    20     1     3   am
    21     3    24    1
    22    24    25    1
    23    25    26   ar
    24    26    27   ar
    25    27    28   ar
    26    28    29   ar
    27    29    30   ar
    28    30    31   ar
    29    31    32   ar
    30    32    33   ar
    31    33    34    1
    32    34    37    1
    33    37    38   ar
    34    38    39   ar
    35    39    40   ar
    36    40    41   ar
    37    41    42   ar
    38    34    35    1
    39    35    36    1
    40    22    16   ar
    41    33    25   ar
    42    36    34    1
    43    32    27   ar
    44    42    37   ar
    45     8     9    1
    46     3     4    1
@<TRIPOS>MOLECULE
*****
 42 46 0 0 0
SMALL
GASTEIGER

@<TRIPOS>ATOM
      1 C          62.7260   89.6760   11.7847 C.2     1  UNL1        0.2411
      2 O          62.2755   90.3972   13.0203 O.2     1  UNL1       -0.2733
      3 N          63.6457   90.3547   10.8134 N.am    1  UNL1       -0.2966
      4 H          63.9414   89.8813   10.0024 H       1  UNL1        0.1499
      5 C          62.2568   88.2759   11.5203 C.3     1  UNL1        0.1555
      6 C          62.7659   85.7809   12.0360 C.2     1  UNL1        0.4017
      7 O          61.3324   85.5685   12.4233 O.2     1  UNL1       -0.2264
      8 N          63.2281   87.1347   11.5845 N.am    1  UNL1       -0.2637
      9 H          64.1689   87.2742   11.3303 H       1  UNL1        0.1532
     10 O          63.7372   84.6397   12.1001 O.3     1  UNL1       -0.4419
     11 C          63.4783   83.1865   10.5767 C.3     1  UNL1        0.0437
     12 C          63.2374   83.2262   12.0567 C.3     1  UNL1        0.1378
     13 C          62.9965   83.2658   13.5366 C.3     1  UNL1        0.0437
     14 C          62.7375   81.8125   12.0131 C.3     1  UNL1        0.0437
     15 C          60.8162   88.0172   11.1918 C.3     1  UNL1        0.0577
     16 C          60.3935   87.8357    9.7641 C.ar    1  UNL1        0.0097
     17 C          60.4617   86.4789    9.1283 C.ar    1  UNL1        0.0277
     18 C          60.0390   86.2974    7.7007 C.ar    1  UNL1        0.1400
     19 F          60.1073   84.9405    7.0649 F       1  UNL1       -0.2042
     20 C          59.5480   87.4729    6.9087 C.ar    1  UNL1        0.0319
     21 C          59.4797   88.8298    7.5444 C.ar    1  UNL1        0.0316
     22 C          59.9024   89.0112    8.9721 C.ar    1  UNL1        0.1363
     23 F          59.8341   90.3681    9.6079 F       1  UNL1       -0.2045
     24 C          64.1149   91.7546   11.0777 C.3     1  UNL1        0.1543
     25 C          65.0536   92.0289   12.2151 C.ar    1  UNL1        0.1417
     26 N          64.7241   91.9257   13.6748 N.ar    1  UNL1       -0.2276
     27 C          65.9535   92.2875   14.4543 C.ar    1  UNL1        0.1167
     28 C          66.2217   92.3616   15.9282 C.ar    1  UNL1        0.0238
     29 C          67.5793   92.7625   16.4242 C.ar    1  UNL1        0.0223
     30 C          68.6687   93.0893   15.4463 C.ar    1  UNL1        0.1006
     31 N          68.4005   93.0152   13.9724 N.ar    1  UNL1       -0.2252
     32 C          67.0429   92.6143   13.4764 C.ar    1  UNL1        0.1626
     33 N          66.4867   92.4545   12.0925 N.ar    1  UNL1       -0.2990
     34 C          67.2328   92.6805   10.8109 C.3     1  UNL1        0.0898
     35 C          68.1377   92.4235    9.6426 C.3     1  UNL1        0.0273
     36 C          67.9493   91.3680   10.6916 C.3     1  UNL1        0.0273
     37 C          66.7755   94.0715   10.4852 C.ar    1  UNL1       -0.0037
     38 C          66.8083   94.5588    9.0670 C.ar    1  UNL1       -0.0025
     39 C          66.3510   95.9498    8.7411 C.ar    1  UNL1       -0.0003
     40 C          65.8609   96.8533    9.8336 C.ar    1  UNL1       -0.0000
     41 C          65.8281   96.3659   11.2519 C.ar    1  UNL1       -0.0003
     42 C          66.2854   94.9750   11.5777 C.ar    1  UNL1       -0.0025
@<TRIPOS>BOND
     1    11    12    1
     2    12    13    1
     3    12    14    1
     4    12    10    1
     5    10     6    1
     6     6     7    2
     7     6     8   am
     8     8     5    1
     9     5    15    1
    10    15    16    1
    11    16    17   ar
    12    17    18   ar
    13    18    19    1
    14    18    20   ar
    15    20    21   ar
    16    21    22   ar
    17    22    23    1
    18     5     1    1
    19     1     2    2
    20     1     3   am
    21     3    24    1
    22    24    25    1
    23    25    26   ar
    24    26    27   ar
    25    27    28   ar
    26    28    29   ar
    27    29    30   ar
    28    30    31   ar
    29    31    32   ar
    30    32    33   ar
    31    33    34    1
    32    34    37    1
    33    37    38   ar
    34    38    39   ar
    35    39    40   ar
    36    40    41   ar
    37    41    42   ar
    38    34    35    1
    39    35    36    1
    40    22    16   ar
    41    33    25   ar
    42    36    34    1
    43    32    27   ar
    44    42    37   ar
    45     8     9    1
    46     3     4    1
@<TRIPOS>MOLECULE
*****
 42 46 0 0 0
SMALL
GASTEIGER

@<TRIPOS>ATOM
      1 C          63.0754   89.3611   12.1566 C.2     1  UNL1        0.2411
      2 O          62.7927   89.9739   13.4962 O.2     1  UNL1       -0.2733
      3 N          63.7134   90.1823   11.0757 N.am    1  UNL1       -0.2966
      4 H          63.8989   89.7800   10.1965 H       1  UNL1        0.1499
      5 C          62.7199   87.9268   11.8980 C.3     1  UNL1        0.1555
      6 C          60.4130   87.7407   10.7175 C.2     1  UNL1        0.4017
      7 O          59.7416   88.2841   11.9439 O.2     1  UNL1       -0.2264
      8 N          61.9022   87.5621   10.6946 N.am    1  UNL1       -0.2637
      9 H          62.3429   87.2055    9.8897 H       1  UNL1        0.1532
     10 O          59.5952   87.3759    9.5142 O.3     1  UNL1       -0.4419
     11 C          59.0875   87.1238    7.4700 C.3     1  UNL1        0.0437
     12 C          59.6126   88.2572    8.3005 C.3     1  UNL1        0.1378
     13 C          60.1378   89.3905    9.1309 C.3     1  UNL1        0.0437
     14 C          59.6300   89.1384    7.0867 C.3     1  UNL1        0.0437
     15 C          63.1823   86.8575   12.8428 C.3     1  UNL1        0.0577
     16 C          63.1080   85.4151   12.4374 C.ar    1  UNL1        0.0097
     17 C          63.4302   85.0146   11.0283 C.ar    1  UNL1        0.0277
     18 C          63.3558   83.5723   10.6230 C.ar    1  UNL1        0.1400
     19 F          63.6781   83.1716    9.2138 F       1  UNL1       -0.2042
     20 C          62.9592   82.5306   11.6268 C.ar    1  UNL1        0.0319
     21 C          62.6369   82.9312   13.0359 C.ar    1  UNL1        0.0316
     22 C          62.7113   84.3735   13.4412 C.ar    1  UNL1        0.1363
     23 F          62.3890   84.7741   14.8504 F       1  UNL1       -0.2045
     24 C          64.0688   91.6164   11.3342 C.3     1  UNL1        0.1543
     25 C          65.0382   91.9640   12.4249 C.ar    1  UNL1        0.1417
     26 N          64.7645   91.9079   13.8986 N.ar    1  UNL1       -0.2276
     27 C          66.0086   92.3379   14.6179 C.ar    1  UNL1        0.1167
     28 C          66.3268   92.4779   16.0770 C.ar    1  UNL1        0.0238
     29 C          67.6875   92.9399   16.5069 C.ar    1  UNL1        0.0223
     30 C          68.7302   93.2618   15.4777 C.ar    1  UNL1        0.1006
     31 N          68.4120   93.1217   14.0185 N.ar    1  UNL1       -0.2252
     32 C          67.0512   92.6598   13.5886 C.ar    1  UNL1        0.1626
     33 N          66.4514   92.4287   12.2333 N.ar    1  UNL1       -0.2990
     34 C          67.1435   92.6274   10.9174 C.3     1  UNL1        0.0898
     35 C          67.9796   92.3366    9.7065 C.3     1  UNL1        0.0273
     36 C          67.7987   91.2869   10.7626 C.3     1  UNL1        0.0273
     37 C          66.7287   94.0369   10.6152 C.ar    1  UNL1       -0.0037
     38 C          66.2265   94.9233   11.7161 C.ar    1  UNL1       -0.0025
     39 C          65.8117   96.3328   11.4139 C.ar    1  UNL1       -0.0003
     40 C          65.8990   96.8557   10.0107 C.ar    1  UNL1       -0.0000
     41 C          66.4012   95.9693    8.9098 C.ar    1  UNL1       -0.0003
     42 C          66.8160   94.5598    9.2120 C.ar    1  UNL1       -0.0025
@<TRIPOS>BOND
     1    11    12    1
     2    12    13    1
     3    12    14    1
     4    12    10    1
     5    10     6    1
     6     6     7    2
     7     6     8   am
     8     8     5    1
     9     5    15    1
    10    15    16    1
    11    16    17   ar
    12    17    18   ar
    13    18    19    1
    14    18    20   ar
    15    20    21   ar
    16    21    22   ar
    17    22    23    1
    18     5     1    1
    19     1     2    2
    20     1     3   am
    21     3    24    1
    22    24    25    1
    23    25    26   ar
    24    26    27   ar
    25    27    28   ar
    26    28    29   ar
    27    29    30   ar
    28    30    31   ar
    29    31    32   ar
    30    32    33   ar
    31    33    34    1
    32    34    37    1
    33    37    38   ar
    34    38    39   ar
    35    39    40   ar
    36    40    41   ar
    37    41    42   ar
    38    34    35    1
    39    35    36    1
    40    22    16   ar
    41    33    25   ar
    42    36    34    1
    43    32    27   ar
    44    42    37   ar
    45     8     9    1
    46     3     4    1
@<TRIPOS>MOLECULE
*****
 42 46 0 0 0
SMALL
GASTEIGER

@<TRIPOS>ATOM
      1 C          60.6315   89.6518   10.6546 C.2     1  UNL1        0.2411
      2 O          59.9653   90.9917   10.7590 O.2     1  UNL1       -0.2733
      3 N          61.6043   89.2137   11.7089 N.am    1  UNL1       -0.2966
      4 H          62.0415   88.3343   11.6404 H       1  UNL1        0.1499
      5 C          60.3248   88.7500    9.4957 C.3     1  UNL1        0.1555
      6 C          59.3437   88.7217    7.0902 C.2     1  UNL1        0.4017
      7 O          58.4462   87.5813    7.4697 O.2     1  UNL1       -0.2264
      8 N          60.2831   89.3060    8.1032 N.am    1  UNL1       -0.2637
      9 H          60.8721   90.0545    7.8542 H       1  UNL1        0.1532
     10 O          59.3019   89.2777    5.6977 O.3     1  UNL1       -0.4419
     11 C          57.5512   90.4700    5.8132 C.3     1  UNL1        0.0437
     12 C          58.9903   90.7285    5.4785 C.3     1  UNL1        0.1378
     13 C          60.4295   90.9870    5.1439 C.3     1  UNL1        0.0437
     14 C          58.6787   92.1794    5.2593 C.3     1  UNL1        0.0437
     15 C          60.0600   87.2922    9.7295 C.3     1  UNL1        0.0577
     16 C          61.1548   86.2882    9.5209 C.ar    1  UNL1        0.0097
     17 C          61.5971   85.9386    8.1309 C.ar    1  UNL1        0.0277
     18 C          62.6918   84.9346    7.9224 C.ar    1  UNL1        0.1400
     19 F          63.1341   84.5850    6.5323 F       1  UNL1       -0.2042
     20 C          63.3443   84.2802    9.1039 C.ar    1  UNL1        0.0319
     21 C          62.9021   84.6298   10.4939 C.ar    1  UNL1        0.0316
     22 C          61.8074   85.6338   10.7024 C.ar    1  UNL1        0.1363
     23 F          61.3651   85.9834   12.0925 F       1  UNL1       -0.2045
     24 C          61.9109   90.1154   12.8677 C.3     1  UNL1        0.1543
     25 C          63.3129   90.5997   13.0907 C.ar    1  UNL1        0.1417
     26 N          64.1751   91.2990   12.0819 N.ar    1  UNL1       -0.2276
     27 C          65.4940   91.6013   12.7293 C.ar    1  UNL1        0.1167
     28 C          66.7317   92.2770   12.2179 C.ar    1  UNL1        0.0238
     29 C          67.9223   92.4402   13.1155 C.ar    1  UNL1        0.0223
     30 C          67.8753   91.9277   14.5244 C.ar    1  UNL1        0.1006
     31 N          66.6376   91.2520   15.0358 N.ar    1  UNL1       -0.2252
     32 C          65.4470   91.0888   14.1382 C.ar    1  UNL1        0.1626
     33 N          64.0990   90.4699   14.3616 N.ar    1  UNL1       -0.2990
     34 C          63.6210   89.8328   15.6327 C.3     1  UNL1        0.0898
     35 C          63.0920   89.6987   17.0299 C.3     1  UNL1        0.0273
     36 C          63.3079   91.0596   16.4372 C.3     1  UNL1        0.0273
     37 C          63.7681   88.3849   15.2697 C.ar    1  UNL1       -0.0037
     38 C          64.1111   87.9956   13.8624 C.ar    1  UNL1       -0.0025
     39 C          64.2582   86.5476   13.4993 C.ar    1  UNL1       -0.0003
     40 C          64.0622   85.4889   14.5438 C.ar    1  UNL1       -0.0000
     41 C          63.7192   85.8783   15.9512 C.ar    1  UNL1       -0.0003
     42 C          63.5722   87.3262   16.3142 C.ar    1  UNL1       -0.0025
@<TRIPOS>BOND
     1    11    12    1
     2    12    13    1
     3    12    14    1
     4    12    10    1
     5    10     6    1
     6     6     7    2
     7     6     8   am
     8     8     5    1
     9     5    15    1
    10    15    16    1
    11    16    17   ar
    12    17    18   ar
    13    18    19    1
    14    18    20   ar
    15    20    21   ar
    16    21    22   ar
    17    22    23    1
    18     5     1    1
    19     1     2    2
    20     1     3   am
    21     3    24    1
    22    24    25    1
    23    25    26   ar
    24    26    27   ar
    25    27    28   ar
    26    28    29   ar
    27    29    30   ar
    28    30    31   ar
    29    31    32   ar
    30    32    33   ar
    31    33    34    1
    32    34    37    1
    33    37    38   ar
    34    38    39   ar
    35    39    40   ar
    36    40    41   ar
    37    41    42   ar
    38    34    35    1
    39    35    36    1
    40    22    16   ar
    41    33    25   ar
    42    36    34    1
    43    32    27   ar
    44    42    37   ar
    45     8     9    1
    46     3     4    1
@<TRIPOS>MOLECULE
*****
 42 46 0 0 0
SMALL
GASTEIGER

@<TRIPOS>ATOM
      1 C          62.5879   88.3306   12.2443 C.2     1  UNL1        0.2411
      2 O          61.5774   89.4388   12.2227 O.2     1  UNL1       -0.2733
      3 N          63.8267   88.4614   13.0801 N.am    1  UNL1       -0.2966
      4 H          64.4899   87.7340   13.0942 H       1  UNL1        0.1499
      5 C          62.3598   87.0915   11.4302 C.3     1  UNL1        0.1555
      6 C          62.6880   85.0725   13.0321 C.2     1  UNL1        0.4017
      7 O          64.0853   85.5324   13.3254 O.2     1  UNL1       -0.2264
      8 N          61.8252   85.8521   12.0845 N.am    1  UNL1       -0.2637
      9 H          60.9081   85.5503   11.8919 H       1  UNL1        0.1532
     10 O          62.1535   83.8331   13.6864 O.3     1  UNL1       -0.4419
     11 C          62.4668   82.3693   12.1834 C.3     1  UNL1        0.0437
     12 C          62.9232   82.5485   13.6010 C.3     1  UNL1        0.1378
     13 C          63.3796   82.7277   15.0185 C.3     1  UNL1        0.0437
     14 C          63.6928   81.2638   13.5155 C.3     1  UNL1        0.0437
     15 C          62.6662   87.0920    9.9618 C.3     1  UNL1        0.0577
     16 C          61.6164   86.6709    8.9765 C.ar    1  UNL1        0.0097
     17 C          61.9018   85.5663    8.0027 C.ar    1  UNL1        0.0277
     18 C          60.8521   85.1453    7.0174 C.ar    1  UNL1        0.1400
     19 F          61.1374   84.0407    6.0436 F       1  UNL1       -0.2042
     20 C          59.5169   85.8289    7.0060 C.ar    1  UNL1        0.0319
     21 C          59.2316   86.9335    7.9798 C.ar    1  UNL1        0.0316
     22 C          60.2813   87.3545    8.9651 C.ar    1  UNL1        0.1363
     23 F          59.9959   88.4592    9.9390 F       1  UNL1       -0.2045
     24 C          64.0548   89.7003   13.8942 C.3     1  UNL1        0.1543
     25 C          64.5408   90.9548   13.2307 C.ar    1  UNL1        0.1417
     26 N          64.4268   91.2813   11.7711 N.ar    1  UNL1       -0.2276
     27 C          65.0417   92.6313   11.5486 C.ar    1  UNL1        0.1167
     28 C          65.2156   93.4637   10.3130 C.ar    1  UNL1        0.0238
     29 C          65.8834   94.8039   10.3995 C.ar    1  UNL1        0.0223
     30 C          66.3775   95.3118   11.7216 C.ar    1  UNL1        0.1006
     31 N          66.2036   94.4794   12.9573 N.ar    1  UNL1       -0.2252
     32 C          65.5357   93.1391   12.8708 C.ar    1  UNL1        0.1626
     33 N          65.2262   92.1030   13.9103 N.ar    1  UNL1       -0.2990
     34 C          65.5458   92.1984   15.3727 C.3     1  UNL1        0.0898
     35 C          65.3537   92.1997   16.8604 C.3     1  UNL1        0.0273
     36 C          64.1833   91.9605   15.9533 C.3     1  UNL1        0.0273
     37 C          67.0193   92.4695   15.3002 C.ar    1  UNL1       -0.0037
     38 C          67.6282   93.5391   16.1575 C.ar    1  UNL1       -0.0025
     39 C          69.1018   93.8102   16.0849 C.ar    1  UNL1       -0.0003
     40 C          69.9663   93.0115   15.1550 C.ar    1  UNL1       -0.0000
     41 C          69.3574   91.9418   14.2977 C.ar    1  UNL1       -0.0003
     42 C          67.8839   91.6708   14.3702 C.ar    1  UNL1       -0.0025
@<TRIPOS>BOND
     1    11    12    1
     2    12    13    1
     3    12    14    1
     4    12    10    1
     5    10     6    1
     6     6     7    2
     7     6     8   am
     8     8     5    1
     9     5    15    1
    10    15    16    1
    11    16    17   ar
    12    17    18   ar
    13    18    19    1
    14    18    20   ar
    15    20    21   ar
    16    21    22   ar
    17    22    23    1
    18     5     1    1
    19     1     2    2
    20     1     3   am
    21     3    24    1
    22    24    25    1
    23    25    26   ar
    24    26    27   ar
    25    27    28   ar
    26    28    29   ar
    27    29    30   ar
    28    30    31   ar
    29    31    32   ar
    30    32    33   ar
    31    33    34    1
    32    34    37    1
    33    37    38   ar
    34    38    39   ar
    35    39    40   ar
    36    40    41   ar
    37    41    42   ar
    38    34    35    1
    39    35    36    1
    40    22    16   ar
    41    33    25   ar
    42    36    34    1
    43    32    27   ar
    44    42    37   ar
    45     8     9    1
    46     3     4    1
@<TRIPOS>MOLECULE
*****
 42 46 0 0 0
SMALL
GASTEIGER

@<TRIPOS>ATOM
      1 C          63.5231   86.9537   13.5263 C.2     1  UNL1        0.2411
      2 O          64.0595   86.7046   14.9048 O.2     1  UNL1       -0.2733
      3 N          63.4744   88.3504   12.9815 N.am    1  UNL1       -0.2966
      4 H          63.1223   88.5139   12.0768 H       1  UNL1        0.1499
      5 C          63.0353   85.8060   12.6926 C.3     1  UNL1        0.1555
      6 C          63.2809   83.5822   14.0134 C.2     1  UNL1        0.4017
      7 O          64.7717   83.7479   14.0152 O.2     1  UNL1       -0.2264
      8 N          62.4127   84.6113   13.3520 N.am    1  UNL1       -0.2637
      9 H          61.4342   84.5026   13.3508 H       1  UNL1        0.1532
     10 O          62.6583   82.3875   14.6728 O.3     1  UNL1       -0.4419
     11 C          60.9800   81.1591   14.2553 C.3     1  UNL1        0.0437
     12 C          62.4339   81.1294   13.8875 C.3     1  UNL1        0.1378
     13 C          63.8878   81.0997   13.5197 C.3     1  UNL1        0.0437
     14 C          62.2095   79.8712   13.1021 C.3     1  UNL1        0.0437
     15 C          63.1702   85.8532   11.1994 C.3     1  UNL1        0.0577
     16 C          62.0602   86.4182   10.3635 C.ar    1  UNL1        0.0097
     17 C          61.1623   87.4793   10.9272 C.ar    1  UNL1        0.0277
     18 C          60.0523   88.0443   10.0913 C.ar    1  UNL1        0.1400
     19 F          59.1544   89.1055   10.6550 F       1  UNL1       -0.2042
     20 C          59.8402   87.5480    8.6918 C.ar    1  UNL1        0.0319
     21 C          60.7380   86.4869    8.1281 C.ar    1  UNL1        0.0316
     22 C          61.8480   85.9220    8.9640 C.ar    1  UNL1        0.1363
     23 F          62.7459   84.8607    8.4003 F       1  UNL1       -0.2045
     24 C          63.9621   89.4980   13.8152 C.3     1  UNL1        0.1543
     25 C          64.4406   90.7560   13.1530 C.ar    1  UNL1        0.1417
     26 N          64.3388   91.0766   11.6912 N.ar    1  UNL1       -0.2276
     27 C          64.9402   92.4330   11.4710 C.ar    1  UNL1        0.1167
     28 C          65.1179   93.2635   10.2347 C.ar    1  UNL1        0.0238
     29 C          65.7691   94.6118   10.3241 C.ar    1  UNL1        0.0223
     30 C          66.2427   95.1295   11.6498 C.ar    1  UNL1        0.1006
     31 N          66.0651   94.2990   12.8862 N.ar    1  UNL1       -0.2252
     32 C          65.4138   92.9507   12.7968 C.ar    1  UNL1        0.1626
     33 N          65.1051   91.9143   13.8363 N.ar    1  UNL1       -0.2990
     34 C          65.4076   92.0180   15.3018 C.3     1  UNL1        0.0898
     35 C          65.2010   92.0134   16.7874 C.3     1  UNL1        0.0273
     36 C          64.0465   91.7423   15.8689 C.3     1  UNL1        0.0273
     37 C          66.8737   92.3297   15.2437 C.ar    1  UNL1       -0.0037
     38 C          67.4539   93.3778   16.1463 C.ar    1  UNL1       -0.0025
     39 C          68.9201   93.6895   16.0883 C.ar    1  UNL1       -0.0003
     40 C          69.8059   92.9532   15.1275 C.ar    1  UNL1       -0.0000
     41 C          69.2256   91.9050   14.2248 C.ar    1  UNL1       -0.0003
     42 C          67.7595   91.5933   14.2829 C.ar    1  UNL1       -0.0025
@<TRIPOS>BOND
     1    11    12    1
     2    12    13    1
     3    12    14    1
     4    12    10    1
     5    10     6    1
     6     6     7    2
     7     6     8   am
     8     8     5    1
     9     5    15    1
    10    15    16    1
    11    16    17   ar
    12    17    18   ar
    13    18    19    1
    14    18    20   ar
    15    20    21   ar
    16    21    22   ar
    17    22    23    1
    18     5     1    1
    19     1     2    2
    20     1     3   am
    21     3    24    1
    22    24    25    1
    23    25    26   ar
    24    26    27   ar
    25    27    28   ar
    26    28    29   ar
    27    29    30   ar
    28    30    31   ar
    29    31    32   ar
    30    32    33   ar
    31    33    34    1
    32    34    37    1
    33    37    38   ar
    34    38    39   ar
    35    39    40   ar
    36    40    41   ar
    37    41    42   ar
    38    34    35    1
    39    35    36    1
    40    22    16   ar
    41    33    25   ar
    42    36    34    1
    43    32    27   ar
    44    42    37   ar
    45     8     9    1
    46     3     4    1
@<TRIPOS>MOLECULE
*****
 42 46 0 0 0
SMALL
GASTEIGER

@<TRIPOS>ATOM
      1 C          62.3065   89.8343    9.7587 C.2     1  UNL1        0.2411
      2 O          63.3925   88.8705    9.3825 O.2     1  UNL1       -0.2733
      3 N          62.6506   91.2501   10.1151 N.am    1  UNL1       -0.2966
      4 H          61.9377   91.8827   10.3620 H       1  UNL1        0.1499
      5 C          60.8763   89.3822    9.7785 C.3     1  UNL1        0.1555
      6 C          59.4653   89.2154    7.6033 C.2     1  UNL1        0.4017
      7 O          60.0322   87.8519    7.3401 O.2     1  UNL1       -0.2264
      8 N          59.8873   89.9806    8.8225 N.am    1  UNL1       -0.2637
      9 H          59.5152   90.8756    8.9953 H       1  UNL1        0.1532
     10 O          58.4763   89.8138    6.6474 O.3     1  UNL1       -0.4419
     11 C          60.3658   90.4194    5.8972 C.3     1  UNL1        0.0437
     12 C          58.9403   90.7703    5.5893 C.3     1  UNL1        0.1378
     13 C          57.5149   91.1213    5.2814 C.3     1  UNL1        0.0437
     14 C          59.4044   91.7269    4.5312 C.3     1  UNL1        0.0437
     15 C          60.4352   88.3319   10.7542 C.3     1  UNL1        0.0577
     16 C          61.3312   87.1682   11.0596 C.ar    1  UNL1        0.0097
     17 C          62.2816   87.2372   12.2180 C.ar    1  UNL1        0.0277
     18 C          63.1775   86.0735   12.5233 C.ar    1  UNL1        0.1400
     19 F          64.1280   86.1425   13.6818 F       1  UNL1       -0.2042
     20 C          63.1231   84.8410   11.6702 C.ar    1  UNL1        0.0319
     21 C          62.1727   84.7720   10.5118 C.ar    1  UNL1        0.0316
     22 C          61.2767   85.9356   10.2065 C.ar    1  UNL1        0.1363
     23 F          60.3263   85.8667    9.0480 F       1  UNL1       -0.2045
     24 C          64.0807   91.7021   10.0953 C.3     1  UNL1        0.1543
     25 C          64.8088   91.9436   11.3843 C.ar    1  UNL1        0.1417
     26 N          64.2518   91.7432   12.7625 N.ar    1  UNL1       -0.2276
     27 C          65.3206   92.1035   13.7514 C.ar    1  UNL1        0.1167
     28 C          65.3424   92.1011   15.2512 C.ar    1  UNL1        0.0238
     29 C          66.5818   92.5217   15.9839 C.ar    1  UNL1        0.0223
     30 C          67.7994   92.9448   15.2168 C.ar    1  UNL1        0.1006
     31 N          67.7776   92.9473   13.7170 N.ar    1  UNL1       -0.2252
     32 C          66.5382   92.5266   12.9843 C.ar    1  UNL1        0.1626
     33 N          66.2219   92.4278   11.5214 N.ar    1  UNL1       -0.2990
     34 C          67.1549   92.7556   10.3935 C.3     1  UNL1        0.0898
     35 C          68.2618   92.6087    9.3919 C.3     1  UNL1        0.0273
     36 C          67.9797   91.5029   10.3653 C.3     1  UNL1        0.0273
     37 C          66.6543   94.1220   10.0300 C.ar    1  UNL1       -0.0037
     38 C          66.8969   94.6681    8.6543 C.ar    1  UNL1       -0.0025
     39 C          66.3962   96.0347    8.2907 C.ar    1  UNL1       -0.0003
     40 C          65.6530   96.8549    9.3031 C.ar    1  UNL1       -0.0000
     41 C          65.4103   96.3087   10.6789 C.ar    1  UNL1       -0.0003
     42 C          65.9110   94.9422   11.0424 C.ar    1  UNL1       -0.0025
@<TRIPOS>BOND
     1    11    12    1
     2    12    13    1
     3    12    14    1
     4    12    10    1
     5    10     6    1
     6     6     7    2
     7     6     8   am
     8     8     5    1
     9     5    15    1
    10    15    16    1
    11    16    17   ar
    12    17    18   ar
    13    18    19    1
    14    18    20   ar
    15    20    21   ar
    16    21    22   ar
    17    22    23    1
    18     5     1    1
    19     1     2    2
    20     1     3   am
    21     3    24    1
    22    24    25    1
    23    25    26   ar
    24    26    27   ar
    25    27    28   ar
    26    28    29   ar
    27    29    30   ar
    28    30    31   ar
    29    31    32   ar
    30    32    33   ar
    31    33    34    1
    32    34    37    1
    33    37    38   ar
    34    38    39   ar
    35    39    40   ar
    36    40    41   ar
    37    41    42   ar
    38    34    35    1
    39    35    36    1
    40    22    16   ar
    41    33    25   ar
    42    36    34    1
    43    32    27   ar
    44    42    37   ar
    45     8     9    1
    46     3     4    1
@<TRIPOS>MOLECULE
*****
 42 46 0 0 0
SMALL
GASTEIGER

@<TRIPOS>ATOM
      1 C          61.1731   89.5232   10.4176 C.2     1  UNL1        0.2411
      2 O          60.4696   90.7846   10.8222 O.2     1  UNL1       -0.2733
      3 N          62.4195   89.0964   11.1347 N.am    1  UNL1       -0.2966
      4 H          62.8813   88.2684   10.8692 H       1  UNL1        0.1499
      5 C          60.6302   88.6884    9.2957 C.3     1  UNL1        0.1555
      6 C          59.4141   88.7292    7.0002 C.2     1  UNL1        0.4017
      7 O          58.5694   87.5655    7.4270 O.2     1  UNL1       -0.2264
      8 N          60.4446   89.2906    7.9346 N.am    1  UNL1       -0.2637
      9 H          60.9990   90.0544    7.6544 H       1  UNL1        0.1532
     10 O          59.2285   89.3314    5.6390 O.3     1  UNL1       -0.4419
     11 C          60.3943   91.0383    5.1621 C.3     1  UNL1        0.0437
     12 C          58.9525   90.7992    5.4996 C.3     1  UNL1        0.1378
     13 C          57.5107   90.5601    5.8372 C.3     1  UNL1        0.0437
     14 C          58.6765   92.2670    5.3602 C.3     1  UNL1        0.0437
     15 C          60.2729   87.2514    9.5351 C.3     1  UNL1        0.0577
     16 C          61.3096   86.1815    9.3597 C.ar    1  UNL1        0.0097
     17 C          61.7713   85.8030    7.9836 C.ar    1  UNL1        0.0277
     18 C          62.8080   84.7332    7.8082 C.ar    1  UNL1        0.1400
     19 F          63.2697   84.3547    6.4321 F       1  UNL1       -0.2042
     20 C          63.3830   84.0419    9.0089 C.ar    1  UNL1        0.0319
     21 C          62.9213   84.4204   10.3849 C.ar    1  UNL1        0.0316
     22 C          61.8846   85.4902   10.5603 C.ar    1  UNL1        0.1363
     23 F          61.4229   85.8688   11.9364 F       1  UNL1       -0.2045
     24 C          62.9625   89.9311   12.2565 C.3     1  UNL1        0.1543
     25 C          63.8305   91.1171   11.9568 C.ar    1  UNL1        0.1417
     26 N          64.0139   91.7584   10.6132 N.ar    1  UNL1       -0.2276
     27 C          64.9644   92.9077   10.7740 C.ar    1  UNL1        0.1167
     28 C          65.5141   93.9003    9.7930 C.ar    1  UNL1        0.0238
     29 C          66.4679   94.9619   10.2548 C.ar    1  UNL1        0.0223
     30 C          66.8719   95.0308   11.6977 C.ar    1  UNL1        0.1006
     31 N          66.3222   94.0383   12.6788 N.ar    1  UNL1       -0.2252
     32 C          65.3684   92.9767   12.2169 C.ar    1  UNL1        0.1626
     33 N          64.6677   91.8700   12.9479 N.ar    1  UNL1       -0.2990
     34 C          64.7837   91.5692   14.4128 C.3     1  UNL1        0.0898
     35 C          64.4032   91.1329   15.7966 C.3     1  UNL1        0.0273
     36 C          63.3944   91.0748   14.6881 C.3     1  UNL1        0.0273
     37 C          66.2131   91.9590   14.6464 C.ar    1  UNL1       -0.0037
     38 C          67.2898   91.4395   13.7404 C.ar    1  UNL1       -0.0025
     39 C          68.7194   91.8293   13.9740 C.ar    1  UNL1       -0.0003
     40 C          69.0721   92.7387   15.1136 C.ar    1  UNL1       -0.0000
     41 C          67.9953   93.2582   16.0196 C.ar    1  UNL1       -0.0003
     42 C          66.5659   92.8684   15.7860 C.ar    1  UNL1       -0.0025
@<TRIPOS>BOND
     1    11    12    1
     2    12    13    1
     3    12    14    1
     4    12    10    1
     5    10     6    1
     6     6     7    2
     7     6     8   am
     8     8     5    1
     9     5    15    1
    10    15    16    1
    11    16    17   ar
    12    17    18   ar
    13    18    19    1
    14    18    20   ar
    15    20    21   ar
    16    21    22   ar
    17    22    23    1
    18     5     1    1
    19     1     2    2
    20     1     3   am
    21     3    24    1
    22    24    25    1
    23    25    26   ar
    24    26    27   ar
    25    27    28   ar
    26    28    29   ar
    27    29    30   ar
    28    30    31   ar
    29    31    32   ar
    30    32    33   ar
    31    33    34    1
    32    34    37    1
    33    37    38   ar
    34    38    39   ar
    35    39    40   ar
    36    40    41   ar
    37    41    42   ar
    38    34    35    1
    39    35    36    1
    40    22    16   ar
    41    33    25   ar
    42    36    34    1
    43    32    27   ar
    44    42    37   ar
    45     8     9    1
    46     3     4    1
