@<TRIPOS>MOLECULE
*****
 35 37 0 0 0
SMALL
GASTEIGER

@<TRIPOS>ATOM
      1 C          62.6632   88.5345   11.5216 C.3     1  UNL1        0.0468
      2 C          61.8387   89.7634   10.0330 C.3     1  UNL1        0.0069
      3 C          63.1638   88.6322   12.3399 C.3     1  UNL1        0.0500
      4 C          63.5233   88.0238   12.9961 C.3     1  UNL1        0.1694
      5 C          63.8688   86.8653   13.6851 C.3     1  UNL1        0.0435
      6 C          64.5928   86.4354   14.9264 C.3     1  UNL1        0.0040
      7 C          63.4428   86.8896   12.9780 C.3     1  UNL1        0.0038
      8 C          63.9417   89.3765   13.5513 C.3     1  UNL1        0.0001
      9 C          63.0011   86.9245   12.2438 C.3     1  UNL1        0.0001
     10 C          62.7812   86.2770   11.9456 C.3     1  UNL1        0.0005
     11 C          62.5477   85.5521   11.6327 C.3     1  UNL1        0.0093
     12 C          62.3183   84.0879   11.4016 C.3     1  UNL1        0.0082
     13 C          62.9553   83.3350   12.5317 C.3     1  UNL1        0.0645
     14 C          63.5784   84.3338   13.4613 C.2     1  UNL1        0.1504
     15 O          64.3227   84.0178   14.7246 O.2     1  UNL1       -0.2961
     16 C          63.3265   85.7041   12.9056 C.3     1  UNL1        0.0610
     17 C          62.3222   86.8302   11.1303 C.3     1  UNL1        0.0276
     18 C          61.2736   85.7877    9.5011 C.3     1  UNL1        0.0025
     19 C          62.3146   87.7880   11.0206 C.3     1  UNL1        0.1141
     20 O          61.2527   88.4186    9.1999 O.3     1  UNL1       -0.3841
     21 H          61.2716   89.3861    9.1332 H       1  UNL1        0.2103
     22 C          63.7438   91.5713   10.8461 C.2     1  UNL1       -0.0048
     23 C          62.7091   90.6286   11.3854 C.2     1  UNL1       -0.0243
     24 O          64.5719   89.0662   14.6252 O.3     1  UNL1       -0.4517
     25 C          64.6140   90.5654   14.6518 C.2     1  UNL1        0.3280
     26 O          63.5499   91.3327   15.3791 O.2     1  UNL1       -0.2491
     27 C          65.7200   91.2972   13.9511 C.3     1  UNL1        0.1670
     28 S          66.1891   92.6236   14.4714 S.3     1  UNL1       -0.1272
     29 C          66.8602   93.5966   13.5479 C.3     1  UNL1        0.0754
     30 C          66.1845   94.0099   12.2741 C.3     1  UNL1        0.0839
     31 N          66.8872   93.8326   10.9607 N.3     1  UNL1       -0.2719
     32 C          67.0642   95.0039   10.0407 C.3     1  UNL1        0.0722
     33 C          66.6779   96.3801   10.4956 C.3     1  UNL1        0.0188
     34 C          67.4128   92.4838   10.5674 C.3     1  UNL1        0.0722
     35 C          68.4304   92.3658    9.4717 C.3     1  UNL1        0.0188
@<TRIPOS>BOND
     1    22    23    2
     2    23     1    1
     3     1     2    1
     4     1     3    1
     5     3     4    1
     6     4    24    1
     7    24    25    1
     8    25    26    2
     9    25    27    1
    10    27    28    1
    11    28    29    1
    12    29    30    1
    13    30    31    1
    14    31    32    1
    15    32    33    1
    16    31    34    1
    17    34    35    1
    18     4     5    1
    19     5     6    1
    20     5     7    1
    21     7     8    1
    22     7     9    1
    23     9    10    1
    24    11    10    1
    25    11    12    1
    26    12    13    1
    27    13    14    1
    28    14    15    2
    29    16    14    1
    30    11    17    1
    31    17    18    1
    32    17    19    1
    33    19    20    1
    34    19     1    1
    35    16     5    1
    36    16    11    1
    37    20    21    1
@<TRIPOS>MOLECULE
*****
 35 37 0 0 0
SMALL
GASTEIGER

@<TRIPOS>ATOM
      1 C          63.3297   87.2816   12.7994 C.3     1  UNL1        0.0468
      2 C          64.2564   86.0590   14.2320 C.3     1  UNL1        0.0069
      3 C          63.1908   88.2218   12.6371 C.3     1  UNL1        0.0500
      4 C          62.7504   88.7377   11.9517 C.3     1  UNL1        0.1694
      5 C          62.0388   89.0990   10.8118 C.3     1  UNL1        0.0435
      6 C          61.5511   90.3249   10.0981 C.3     1  UNL1        0.0040
      7 C          62.2109   88.3242   11.0399 C.3     1  UNL1        0.0038
      8 C          63.2726   89.8219   12.8817 C.3     1  UNL1        0.0001
      9 C          62.3943   87.5231   11.2847 C.3     1  UNL1        0.0001
     10 C          62.1517   86.9682   10.8491 C.3     1  UNL1        0.0005
     11 C          61.8753   86.3701   10.3552 C.3     1  UNL1        0.0093
     12 C          61.2261   85.6062    9.2394 C.3     1  UNL1        0.0082
     13 C          60.6088   86.5969    8.2973 C.3     1  UNL1        0.0645
     14 C          60.8765   87.9730    8.8308 C.2     1  UNL1        0.1504
     15 O          60.4384   89.2628    8.2027 O.2     1  UNL1       -0.2961
     16 C          61.6593   87.8328   10.1027 C.3     1  UNL1        0.0610
     17 C          62.6017   86.2569   11.5367 C.3     1  UNL1        0.0276
     18 C          62.4719   84.0908   11.1743 C.3     1  UNL1        0.0025
     19 C          63.0857   86.4676   12.3436 C.3     1  UNL1        0.1141
     20 O          63.8010   84.6697   13.3903 O.3     1  UNL1       -0.3841
     21 H          64.2798   84.9314   14.1923 H       1  UNL1        0.2103
     22 C          63.8827   88.3537   15.8638 C.2     1  UNL1       -0.0048
     23 C          64.3641   87.8571   14.5328 C.2     1  UNL1       -0.0243
     24 O          62.8802   90.9038   12.3141 O.3     1  UNL1       -0.4517
     25 C          64.0064   91.4610   13.1332 C.2     1  UNL1        0.3280
     26 O          63.8628   91.5825   14.6214 O.2     1  UNL1       -0.2491
     27 C          65.2762   91.8968   12.4643 C.3     1  UNL1        0.1670
     28 S          66.1298   92.9575   13.0938 S.3     1  UNL1       -0.1272
     29 C          66.4288   94.2222   12.3448 C.3     1  UNL1        0.0754
     30 C          66.1104   94.3208   10.8823 C.3     1  UNL1        0.0839
     31 N          67.1518   94.8088    9.9192 N.3     1  UNL1       -0.2719
     32 C          67.2594   96.2723    9.6089 C.3     1  UNL1        0.0722
     33 C          67.1559   96.7478    8.1901 C.3     1  UNL1        0.0188
     34 C          68.0856   93.8331    9.2664 C.3     1  UNL1        0.0722
     35 C          68.0811   92.3936    9.6881 C.3     1  UNL1        0.0188
@<TRIPOS>BOND
     1    22    23    2
     2    23     1    1
     3     1     2    1
     4     1     3    1
     5     3     4    1
     6     4    24    1
     7    24    25    1
     8    25    26    2
     9    25    27    1
    10    27    28    1
    11    28    29    1
    12    29    30    1
    13    30    31    1
    14    31    32    1
    15    32    33    1
    16    31    34    1
    17    34    35    1
    18     4     5    1
    19     5     6    1
    20     5     7    1
    21     7     8    1
    22     7     9    1
    23     9    10    1
    24    11    10    1
    25    11    12    1
    26    12    13    1
    27    13    14    1
    28    14    15    2
    29    16    14    1
    30    11    17    1
    31    17    18    1
    32    17    19    1
    33    19    20    1
    34    19     1    1
    35    16     5    1
    36    16    11    1
    37    20    21    1
@<TRIPOS>MOLECULE
*****
 35 37 0 0 0
SMALL
GASTEIGER

@<TRIPOS>ATOM
      1 C          63.3435   87.1910   12.7766 C.3     1  UNL1        0.0468
      2 C          64.3109   85.9870   14.1980 C.3     1  UNL1        0.0069
      3 C          63.1771   88.1278   12.6204 C.3     1  UNL1        0.0500
      4 C          62.7192   88.6349   11.9400 C.3     1  UNL1        0.1694
      5 C          61.9927   88.9823   10.8052 C.3     1  UNL1        0.0435
      6 C          61.4671   90.1979   10.1009 C.3     1  UNL1        0.0040
      7 C          62.1877   88.2115   11.0280 C.3     1  UNL1        0.0038
      8 C          63.2143   89.7281   12.8742 C.3     1  UNL1        0.0001
      9 C          62.3950   87.4145   11.2673 C.3     1  UNL1        0.0001
     10 C          62.1664   86.8554   10.8294 C.3     1  UNL1        0.0005
     11 C          61.9050   86.2526   10.3332 C.3     1  UNL1        0.0093
     12 C          61.2730   85.4770    9.2156 C.3     1  UNL1        0.0082
     13 C          60.6236   86.4551    8.2820 C.3     1  UNL1        0.0645
     14 C          60.8542   87.8351    8.8226 C.2     1  UNL1        0.1504
     15 O          60.3768   89.1155    8.2040 O.2     1  UNL1       -0.2961
     16 C          61.6462   87.7100   10.0903 C.3     1  UNL1        0.0610
     17 C          62.6396   86.1533   11.5109 C.3     1  UNL1        0.0276
     18 C          62.5699   83.9865   11.1362 C.3     1  UNL1        0.0025
     19 C          63.1208   86.3731   12.3170 C.3     1  UNL1        0.1141
     20 O          63.8917   84.5902   13.3500 O.3     1  UNL1       -0.3841
     21 H          64.3663   84.8608   14.1515 H       1  UNL1        0.2103
     22 C          63.8841   88.1370   15.8845 C.2     1  UNL1       -0.0048
     23 C          64.3687   87.7857   14.5090 C.2     1  UNL1       -0.0243
     24 O          62.7888   90.8016   12.3147 O.3     1  UNL1       -0.4517
     25 C          63.8269   91.3706   13.2358 C.2     1  UNL1        0.3280
     26 O          63.5842   91.3946   14.7158 O.2     1  UNL1       -0.2491
     27 C          65.1078   91.9154   12.6770 C.3     1  UNL1        0.1670
     28 S          65.1523   92.4318   11.2693 S.3     1  UNL1       -0.1272
     29 C          65.4712   93.8743   11.0093 C.3     1  UNL1        0.0754
     30 C          66.8976   94.3384   11.0067 C.3     1  UNL1        0.0839
     31 N          67.5384   94.7855    9.7262 N.3     1  UNL1       -0.2719
     32 C          68.3691   93.8250    8.9279 C.3     1  UNL1        0.0722
     33 C          68.4231   92.3772    9.3167 C.3     1  UNL1        0.0188
     34 C          67.3485   96.1931    9.2441 C.3     1  UNL1        0.0722
     35 C          66.7534   96.4487    7.8911 C.3     1  UNL1        0.0188
@<TRIPOS>BOND
     1    22    23    2
     2    23     1    1
     3     1     2    1
     4     1     3    1
     5     3     4    1
     6     4    24    1
     7    24    25    1
     8    25    26    2
     9    25    27    1
    10    27    28    1
    11    28    29    1
    12    29    30    1
    13    30    31    1
    14    31    32    1
    15    32    33    1
    16    31    34    1
    17    34    35    1
    18     4     5    1
    19     5     6    1
    20     5     7    1
    21     7     8    1
    22     7     9    1
    23     9    10    1
    24    11    10    1
    25    11    12    1
    26    12    13    1
    27    13    14    1
    28    14    15    2
    29    16    14    1
    30    11    17    1
    31    17    18    1
    32    17    19    1
    33    19    20    1
    34    19     1    1
    35    16     5    1
    36    16    11    1
    37    20    21    1
@<TRIPOS>MOLECULE
*****
 35 37 0 0 0
SMALL
GASTEIGER

@<TRIPOS>ATOM
      1 C          63.9063   89.8817   13.0361 C.3     1  UNL1        0.0468
      2 C          64.5540   91.8254   13.4923 C.3     1  UNL1        0.0069
      3 C          63.9353   89.0022   13.4303 C.3     1  UNL1        0.0500
      4 C          63.6166   88.1290   13.1736 C.3     1  UNL1        0.1694
      5 C          63.0231   87.0852   12.4704 C.3     1  UNL1        0.0435
      6 C          62.7793   85.6097   12.5862 C.3     1  UNL1        0.0040
      7 C          63.0522   87.8717   12.2204 C.3     1  UNL1        0.0038
      8 C          64.2769   87.8468   14.5143 C.3     1  UNL1        0.0001
      9 C          63.0872   88.6908   11.9689 C.3     1  UNL1        0.0001
     10 C          62.7720   88.8617   11.3148 C.3     1  UNL1        0.0005
     11 C          62.4185   89.0300   10.5904 C.3     1  UNL1        0.0093
     12 C          61.6949   88.9272    9.2805 C.3     1  UNL1        0.0082
     13 C          61.2928   87.4954    9.0843 C.3     1  UNL1        0.0645
     14 C          61.7679   86.7134   10.2729 C.2     1  UNL1        0.1504
     15 O          61.5802   85.2415   10.4921 O.2     1  UNL1       -0.2961
     16 C          62.4636   87.6618   11.2037 C.3     1  UNL1        0.0610
     17 C          63.0670   89.8970   11.4646 C.3     1  UNL1        0.0276
     18 C          62.5870   91.4407    9.9723 C.3     1  UNL1        0.0025
     19 C          63.5466   90.2523   12.2218 C.3     1  UNL1        0.1141
     20 O          63.9043   92.4164   12.0519 O.3     1  UNL1       -0.3841
     21 H          64.3877   92.7266   12.8336 H       1  UNL1        0.2103
     22 C          64.4850   91.1758   16.0087 C.2     1  UNL1       -0.0048
     23 C          64.9524   90.5440   14.7310 C.2     1  UNL1       -0.0243
     24 O          64.0966   86.5854   14.6659 O.3     1  UNL1       -0.4517
     25 C          63.3736   86.5619   15.9799 C.2     1  UNL1        0.3280
     26 O          63.1624   87.8361   16.7426 O.2     1  UNL1       -0.2491
     27 C          62.8619   85.2642   16.5312 C.3     1  UNL1        0.1670
     28 S          62.4525   84.1626   15.5990 S.3     1  UNL1       -0.1272
     29 C          63.4117   83.0541   15.2809 C.3     1  UNL1        0.0754
     30 C          63.8215   82.8016   13.8602 C.3     1  UNL1        0.0839
     31 N          63.1063   81.7640   13.0465 N.3     1  UNL1       -0.2719
     32 C          63.1627   81.8157   11.5485 C.3     1  UNL1        0.0722
     33 C          64.2245   82.6255   10.8653 C.3     1  UNL1        0.0188
     34 C          62.3347   80.6749   13.7308 C.3     1  UNL1        0.0722
     35 C          60.8972   80.8923   14.1001 C.3     1  UNL1        0.0188
@<TRIPOS>BOND
     1    22    23    2
     2    23     1    1
     3     1     2    1
     4     1     3    1
     5     3     4    1
     6     4    24    1
     7    24    25    1
     8    25    26    2
     9    25    27    1
    10    27    28    1
    11    28    29    1
    12    29    30    1
    13    30    31    1
    14    31    32    1
    15    32    33    1
    16    31    34    1
    17    34    35    1
    18     4     5    1
    19     5     6    1
    20     5     7    1
    21     7     8    1
    22     7     9    1
    23     9    10    1
    24    11    10    1
    25    11    12    1
    26    12    13    1
    27    13    14    1
    28    14    15    2
    29    16    14    1
    30    11    17    1
    31    17    18    1
    32    17    19    1
    33    19    20    1
    34    19     1    1
    35    16     5    1
    36    16    11    1
    37    20    21    1
@<TRIPOS>MOLECULE
*****
 35 37 0 0 0
SMALL
GASTEIGER

@<TRIPOS>ATOM
      1 C          61.4422   87.6584    9.9998 C.3     1  UNL1        0.0468
      2 C          60.2810   88.1116    8.3110 C.3     1  UNL1        0.0069
      3 C          61.7361   86.8773   10.4827 C.3     1  UNL1        0.0500
      4 C          62.2777   86.7234   11.2656 C.3     1  UNL1        0.1694
      5 C          63.0780   86.9194   12.3869 C.3     1  UNL1        0.0435
      6 C          63.7813   86.1322   13.4526 C.3     1  UNL1        0.0040
      7 C          62.7756   87.5196   11.9070 C.3     1  UNL1        0.0038
      8 C          61.9040   85.3082   10.8523 C.3     1  UNL1        0.0001
      9 C          62.4573   88.1361   11.4031 C.3     1  UNL1        0.0001
     10 C          62.6228   88.8418   11.5795 C.3     1  UNL1        0.0005
     11 C          62.8168   89.6136   11.7909 C.3     1  UNL1        0.0093
     12 C          63.3738   90.8227   12.4820 C.3     1  UNL1        0.0082
     13 C          64.1753   90.3548   13.6605 C.3     1  UNL1        0.0645
     14 C          64.1135   88.8566   13.6977 C.2     1  UNL1        0.1504
     15 O          64.7752   87.9718   14.7122 O.2     1  UNL1       -0.2961
     16 C          63.2739   88.3984   12.5422 C.3     1  UNL1        0.0610
     17 C          62.0402   89.1726   10.7237 C.3     1  UNL1        0.0276
     18 C          61.8329   91.3112   10.2506 C.3     1  UNL1        0.0025
     19 C          61.5682   88.6092   10.0996 C.3     1  UNL1        0.1141
     20 O          60.5366   89.7638    8.5366 O.3     1  UNL1       -0.3841
     21 H          60.0781   89.1562    7.9354 H       1  UNL1        0.2103
     22 C          60.9412   85.5311    7.5362 C.2     1  UNL1       -0.0048
     23 C          60.4531   86.3364    8.7037 C.2     1  UNL1       -0.0243
     24 O          62.4850   84.5848   11.7386 O.3     1  UNL1       -0.4517
     25 C          63.2709   83.6881   10.8286 C.2     1  UNL1        0.3280
     26 O          63.5950   84.1335    9.4335 O.2     1  UNL1       -0.2491
     27 C          63.7325   82.3459   11.3137 C.3     1  UNL1        0.1670
     28 S          62.7453   81.3791   11.8975 S.3     1  UNL1       -0.1272
     29 C          62.8072   81.0329   13.3558 C.3     1  UNL1        0.0754
     30 C          62.0594   81.8636   14.3562 C.3     1  UNL1        0.0839
     31 N          62.7335   83.0298   15.0161 N.3     1  UNL1       -0.2719
     32 C          64.2210   83.0256   15.2088 C.3     1  UNL1        0.0722
     33 C          65.0936   83.8714   14.3295 C.3     1  UNL1        0.0188
     34 C          61.9200   84.2002   15.4834 C.3     1  UNL1        0.0722
     35 C          62.4557   85.1075   16.5511 C.3     1  UNL1        0.0188
@<TRIPOS>BOND
     1    22    23    2
     2    23     1    1
     3     1     2    1
     4     1     3    1
     5     3     4    1
     6     4    24    1
     7    24    25    1
     8    25    26    2
     9    25    27    1
    10    27    28    1
    11    28    29    1
    12    29    30    1
    13    30    31    1
    14    31    32    1
    15    32    33    1
    16    31    34    1
    17    34    35    1
    18     4     5    1
    19     5     6    1
    20     5     7    1
    21     7     8    1
    22     7     9    1
    23     9    10    1
    24    11    10    1
    25    11    12    1
    26    12    13    1
    27    13    14    1
    28    14    15    2
    29    16    14    1
    30    11    17    1
    31    17    18    1
    32    17    19    1
    33    19    20    1
    34    19     1    1
    35    16     5    1
    36    16    11    1
    37    20    21    1
@<TRIPOS>MOLECULE
*****
 35 37 0 0 0
SMALL
GASTEIGER

@<TRIPOS>ATOM
      1 C          63.4447   90.5940   11.8501 C.3     1  UNL1        0.0468
      2 C          62.5141   90.3286    9.9876 C.3     1  UNL1        0.0069
      3 C          63.4467   90.1774   12.7197 C.3     1  UNL1        0.0500
      4 C          63.9009   90.3429   13.5541 C.3     1  UNL1        0.1694
      5 C          64.7204   90.8948   14.5339 C.3     1  UNL1        0.0435
      6 C          65.1044   90.6834   15.9684 C.3     1  UNL1        0.0040
      7 C          64.6471   91.1758   13.7608 C.3     1  UNL1        0.0038
      8 C          63.0541   89.1242   13.8874 C.3     1  UNL1        0.0001
      9 C          64.5646   91.4604   12.9561 C.3     1  UNL1        0.0001
     10 C          64.9672   92.0575   12.7613 C.3     1  UNL1        0.0005
     11 C          65.4197   92.7171   12.5660 C.3     1  UNL1        0.0093
     12 C          66.3662   93.8800   12.6071 C.3     1  UNL1        0.0082
     13 C          66.9541   93.9505   13.9853 C.3     1  UNL1        0.0645
     14 C          66.3710   92.8312   14.7959 C.2     1  UNL1        0.1504
     15 O          66.6817   92.5276   16.2316 O.2     1  UNL1       -0.2961
     16 C          65.4227   92.0689   13.9187 C.3     1  UNL1        0.0610
     17 C          64.5365   91.9994   11.7651 C.3     1  UNL1        0.0276
     18 C          65.0917   93.4459   10.2031 C.3     1  UNL1        0.0025
     19 C          63.8962   91.3488   11.4547 C.3     1  UNL1        0.1141
     20 O          63.3330   91.6589    9.3507 O.3     1  UNL1       -0.3841
     21 H          62.6898   90.9832    9.0852 H       1  UNL1        0.2103
     22 C          62.2294   87.7245   10.7849 C.2     1  UNL1       -0.0048
     23 C          62.0533   89.1280   11.2842 C.2     1  UNL1       -0.0243
     24 O          63.3457   88.8964   15.1160 O.3     1  UNL1       -0.4517
     25 C          63.7153   87.4506   14.9650 C.2     1  UNL1        0.3280
     26 O          63.9264   86.8693   13.5984 O.2     1  UNL1       -0.2491
     27 C          63.8737   86.5860   16.1803 C.3     1  UNL1        0.1670
     28 S          62.7796   85.6386   16.5747 S.3     1  UNL1       -0.1272
     29 C          62.4586   84.4596   15.7047 C.3     1  UNL1        0.0754
     30 C          63.5638   83.5913   15.1806 C.3     1  UNL1        0.0839
     31 N          63.3920   82.8610   13.8817 N.3     1  UNL1       -0.2719
     32 C          62.8946   81.4459   13.8770 C.3     1  UNL1        0.0722
     33 C          61.4238   81.1675   13.9728 C.3     1  UNL1        0.0188
     34 C          63.7175   83.5458   12.5875 C.3     1  UNL1        0.0722
     35 C          62.6133   84.0679   11.7167 C.3     1  UNL1        0.0188
@<TRIPOS>BOND
     1    22    23    2
     2    23     1    1
     3     1     2    1
     4     1     3    1
     5     3     4    1
     6     4    24    1
     7    24    25    1
     8    25    26    2
     9    25    27    1
    10    27    28    1
    11    28    29    1
    12    29    30    1
    13    30    31    1
    14    31    32    1
    15    32    33    1
    16    31    34    1
    17    34    35    1
    18     4     5    1
    19     5     6    1
    20     5     7    1
    21     7     8    1
    22     7     9    1
    23     9    10    1
    24    11    10    1
    25    11    12    1
    26    12    13    1
    27    13    14    1
    28    14    15    2
    29    16    14    1
    30    11    17    1
    31    17    18    1
    32    17    19    1
    33    19    20    1
    34    19     1    1
    35    16     5    1
    36    16    11    1
    37    20    21    1
@<TRIPOS>MOLECULE
*****
 35 37 0 0 0
SMALL
GASTEIGER

@<TRIPOS>ATOM
      1 C          63.2599   88.5958   12.6824 C.3     1  UNL1        0.0468
      2 C          64.0987   90.0565   13.9349 C.3     1  UNL1        0.0069
      3 C          63.2148   87.6342   12.6278 C.3     1  UNL1        0.0500
      4 C          62.8092   87.0039   12.0210 C.3     1  UNL1        0.1694
      5 C          62.1037   86.4490   10.9578 C.3     1  UNL1        0.0435
      6 C          61.7242   85.1088   10.4010 C.3     1  UNL1        0.0040
      7 C          62.2011   87.2576   11.0941 C.3     1  UNL1        0.0038
      8 C          63.4708   86.0874   13.0386 C.3     1  UNL1        0.0001
      9 C          62.3075   88.0953   11.2436 C.3     1  UNL1        0.0001
     10 C          61.9947   88.5713   10.7619 C.3     1  UNL1        0.0005
     11 C          61.6419   89.0801   10.2191 C.3     1  UNL1        0.0093
     12 C          60.8816   89.6466    9.0568 C.3     1  UNL1        0.0082
     13 C          60.3417   88.5007    8.2534 C.3     1  UNL1        0.0645
     14 C          60.7682   87.2261    8.9193 C.2     1  UNL1        0.1504
     15 O          60.4475   85.8372    8.4522 O.2     1  UNL1       -0.2961
     16 C          61.5718   87.5842   10.1342 C.3     1  UNL1        0.0610
     17 C          62.3895   89.3959   11.3496 C.3     1  UNL1        0.0276
     18 C          62.0230   91.4845   10.7631 C.3     1  UNL1        0.0025
     19 C          62.9180   89.3256   12.1529 C.3     1  UNL1        0.1141
     20 O          63.4745   91.2912   12.9695 O.3     1  UNL1       -0.3841
     21 H          64.0030   91.1694   13.7737 H       1  UNL1        0.2103
     22 C          64.0513   87.7681   15.7702 C.2     1  UNL1       -0.0048
     23 C          64.4029   88.3228   14.4216 C.2     1  UNL1       -0.0243
     24 O          63.1757   84.9155   12.6074 O.3     1  UNL1       -0.4517
     25 C          63.8922   84.6111   13.8896 C.2     1  UNL1        0.3280
     26 O          65.3680   84.8556   14.0004 O.2     1  UNL1       -0.2491
     27 C          63.1330   84.0622   15.0609 C.3     1  UNL1        0.1670
     28 S          62.4877   82.7111   14.9700 S.3     1  UNL1       -0.1272
     29 C          62.9484   81.7280   13.9349 C.3     1  UNL1        0.0754
     30 C          62.1276   81.4987   12.7005 C.3     1  UNL1        0.0839
     31 N          62.7922   81.0639   11.4280 N.3     1  UNL1       -0.2719
     32 C          62.8709   79.6063   11.0830 C.3     1  UNL1        0.0722
     33 C          62.8631   79.1740    9.6467 C.3     1  UNL1        0.0188
     34 C          63.3781   82.0868   10.5005 C.3     1  UNL1        0.0722
     35 C          64.7136   82.6981   10.8054 C.3     1  UNL1        0.0188
@<TRIPOS>BOND
     1    22    23    2
     2    23     1    1
     3     1     2    1
     4     1     3    1
     5     3     4    1
     6     4    24    1
     7    24    25    1
     8    25    26    2
     9    25    27    1
    10    27    28    1
    11    28    29    1
    12    29    30    1
    13    30    31    1
    14    31    32    1
    15    32    33    1
    16    31    34    1
    17    34    35    1
    18     4     5    1
    19     5     6    1
    20     5     7    1
    21     7     8    1
    22     7     9    1
    23     9    10    1
    24    11    10    1
    25    11    12    1
    26    12    13    1
    27    13    14    1
    28    14    15    2
    29    16    14    1
    30    11    17    1
    31    17    18    1
    32    17    19    1
    33    19    20    1
    34    19     1    1
    35    16     5    1
    36    16    11    1
    37    20    21    1
@<TRIPOS>MOLECULE
*****
 35 37 0 0 0
SMALL
GASTEIGER

@<TRIPOS>ATOM
      1 C          65.5156   91.6096   13.6222 C.3     1  UNL1        0.0468
      2 C          67.3392   92.6083   13.9103 C.3     1  UNL1        0.0069
      3 C          64.9022   91.0693   14.1335 C.3     1  UNL1        0.0500
      4 C          64.0648   90.6283   13.9487 C.3     1  UNL1        0.1694
      5 C          62.9240   90.1596   13.3044 C.3     1  UNL1        0.0435
      6 C          61.7026   89.3334   13.5794 C.3     1  UNL1        0.0040
      7 C          63.5087   90.6277   12.9567 C.3     1  UNL1        0.0038
      8 C          64.2958   90.2761   15.4101 C.3     1  UNL1        0.0001
      9 C          64.1208   91.1139   12.6040 C.3     1  UNL1        0.0001
     10 C          64.0365   91.3039   11.8876 C.3     1  UNL1        0.0005
     11 C          63.9251   91.5029   11.0964 C.3     1  UNL1        0.0093
     12 C          63.3756   91.6395    9.7074 C.3     1  UNL1        0.0082
     13 C          62.0816   90.8833    9.6446 C.3     1  UNL1        0.0645
     14 C          61.8315   90.2794   10.9947 C.2     1  UNL1        0.1504
     15 O          60.6496   89.4400   11.3798 O.2     1  UNL1       -0.2961
     16 C          62.9709   90.6623   11.8920 C.3     1  UNL1        0.0610
     17 C          64.9750   91.8496   11.9415 C.3     1  UNL1        0.0276
     18 C          65.7696   92.9158   10.1888 C.3     1  UNL1        0.0025
     19 C          65.5458   91.9328   12.7141 C.3     1  UNL1        0.1141
     20 O          67.3372   93.1445   12.3108 O.3     1  UNL1       -0.3841
     21 H          67.8780   93.1994   13.1142 H       1  UNL1        0.2103
     22 C          66.6831   92.7029   16.5010 C.2     1  UNL1       -0.0048
     23 C          66.6796   91.7231   15.3652 C.2     1  UNL1       -0.0243
     24 O          63.2702   89.5621   15.7014 O.3     1  UNL1       -0.4517
     25 C          63.5536   88.1003   15.8821 C.2     1  UNL1        0.3280
     26 O          62.9458   87.3553   17.0334 O.2     1  UNL1       -0.2491
     27 C          64.4449   87.3835   14.9117 C.3     1  UNL1        0.1670
     28 S          64.4860   85.8841   14.8977 S.3     1  UNL1       -0.1272
     29 C          63.7801   85.1245   13.8138 C.3     1  UNL1        0.0754
     30 C          63.1043   83.8228   14.1283 C.3     1  UNL1        0.0839
     31 N          63.4417   82.5928   13.3388 N.3     1  UNL1       -0.2719
     32 C          62.8906   81.2608   13.7535 C.3     1  UNL1        0.0722
     33 C          61.4085   81.0701   13.8844 C.3     1  UNL1        0.0188
     34 C          64.3302   82.6948   12.1346 C.3     1  UNL1        0.0722
     35 C          63.7305   82.9047   10.7758 C.3     1  UNL1        0.0188
@<TRIPOS>BOND
     1    22    23    2
     2    23     1    1
     3     1     2    1
     4     1     3    1
     5     3     4    1
     6     4    24    1
     7    24    25    1
     8    25    26    2
     9    25    27    1
    10    27    28    1
    11    28    29    1
    12    29    30    1
    13    30    31    1
    14    31    32    1
    15    32    33    1
    16    31    34    1
    17    34    35    1
    18     4     5    1
    19     5     6    1
    20     5     7    1
    21     7     8    1
    22     7     9    1
    23     9    10    1
    24    11    10    1
    25    11    12    1
    26    12    13    1
    27    13    14    1
    28    14    15    2
    29    16    14    1
    30    11    17    1
    31    17    18    1
    32    17    19    1
    33    19    20    1
    34    19     1    1
    35    16     5    1
    36    16    11    1
    37    20    21    1
@<TRIPOS>MOLECULE
*****
 35 37 0 0 0
SMALL
GASTEIGER

@<TRIPOS>ATOM
      1 C          62.6344   87.9251   11.5903 C.3     1  UNL1        0.0468
      2 C          61.8855   89.3276   10.2198 C.3     1  UNL1        0.0069
      3 C          63.0818   87.9213   12.4444 C.3     1  UNL1        0.0500
      4 C          63.4088   87.2370   13.0398 C.3     1  UNL1        0.1694
      5 C          63.7281   86.0026   13.5972 C.3     1  UNL1        0.0435
      6 C          64.3801   85.4233   14.8176 C.3     1  UNL1        0.0040
      7 C          63.3465   86.1137   12.8733 C.3     1  UNL1        0.0038
      8 C          63.7720   88.5109   13.7871 C.3     1  UNL1        0.0001
      9 C          62.9507   86.2387   12.1229 C.3     1  UNL1        0.0001
     10 C          62.7593   85.6329   11.7319 C.3     1  UNL1        0.0005
     11 C          62.5564   84.9521   11.3157 C.3     1  UNL1        0.0093
     12 C          62.3635   83.5276   10.8871 C.3     1  UNL1        0.0082
     13 C          62.9404   82.6414   11.9510 C.3     1  UNL1        0.0645
     14 C          63.4898   83.5182   13.0371 C.2     1  UNL1        0.1504
     15 O          64.1590   83.0492   14.2949 O.2     1  UNL1       -0.2961
     16 C          63.2525   84.9463   12.6444 C.3     1  UNL1        0.0610
     17 C          62.3436   86.2821   10.9657 C.3     1  UNL1        0.0276
     18 C          61.4135   85.4481    9.1546 C.3     1  UNL1        0.0025
     19 C          62.3286   87.2460   10.9777 C.3     1  UNL1        0.1141
     20 O          61.3723   88.0957    9.1879 O.3     1  UNL1       -0.3841
     21 H          61.3810   89.0639    9.2454 H       1  UNL1        0.2103
     22 C          63.7511   91.0220   11.5002 C.2     1  UNL1       -0.0048
     23 C          62.6575   90.0198   11.7232 C.2     1  UNL1       -0.0243
     24 O          64.3389   88.0709   14.8508 O.3     1  UNL1       -0.4517
     25 C          63.4805   88.5213   15.9954 C.2     1  UNL1        0.3280
     26 O          62.6877   87.5173   16.7786 O.2     1  UNL1       -0.2491
     27 C          63.4150   89.9755   16.3570 C.3     1  UNL1        0.1670
     28 S          63.9102   91.0114   15.3917 S.3     1  UNL1       -0.1272
     29 C          65.3826   91.2581   15.2463 C.3     1  UNL1        0.0754
     30 C          65.9377   92.6342   15.4658 C.3     1  UNL1        0.0839
     31 N          66.9441   93.1986   14.5074 N.3     1  UNL1       -0.2719
     32 C          66.4876   94.0171   13.3362 C.3     1  UNL1        0.0722
     33 C          66.4925   93.4233   11.9587 C.3     1  UNL1        0.0188
     34 C          68.4071   92.9445   14.7201 C.3     1  UNL1        0.0722
     35 C          68.9031   92.4975   16.0633 C.3     1  UNL1        0.0188
@<TRIPOS>BOND
     1    22    23    2
     2    23     1    1
     3     1     2    1
     4     1     3    1
     5     3     4    1
     6     4    24    1
     7    24    25    1
     8    25    26    2
     9    25    27    1
    10    27    28    1
    11    28    29    1
    12    29    30    1
    13    30    31    1
    14    31    32    1
    15    32    33    1
    16    31    34    1
    17    34    35    1
    18     4     5    1
    19     5     6    1
    20     5     7    1
    21     7     8    1
    22     7     9    1
    23     9    10    1
    24    11    10    1
    25    11    12    1
    26    12    13    1
    27    13    14    1
    28    14    15    2
    29    16    14    1
    30    11    17    1
    31    17    18    1
    32    17    19    1
    33    19    20    1
    34    19     1    1
    35    16     5    1
    36    16    11    1
    37    20    21    1
