@<TRIPOS>MOLECULE
*****
 31 34 0 0 0
SMALL
GASTEIGER

@<TRIPOS>ATOM
      1 C          63.5627   88.3665   15.4874 C.3     0  UNK0        0.2246
      2 C          63.6409   86.8907   15.2311 C.2     0  UNK0        0.0436
      3 C          63.3560   85.9209   16.3395 C.2     0  UNK0        0.0288
      4 C          62.9929   86.4270   17.7041 C.2     0  UNK0        0.0896
      5 N          62.9147   87.9028   17.9603 N.am    0  UNK0       -0.1770
      6 C          63.1996   88.8726   16.8520 C.2     0  UNK0        0.2627
      7 O          63.1215   90.3485   17.1082 O.2     0  UNK0       -0.2719
      8 C          62.3513   90.4295   10.0688 C.3     0  UNK0        0.0312
      9 C          63.4421   91.0490   10.8913 C.2     0  UNK0        0.0129
     10 C          64.2342   92.1986   10.3428 C.2     0  UNK0        0.0029
     11 C          65.3248   92.8181   11.1652 C.2     0  UNK0        0.0376
     12 BR         66.1170   93.9678   10.6166 Br      0  UNK0       -0.0489
     13 C          65.6235   92.2881   12.5363 C.2     0  UNK0        0.0535
     14 C          64.8314   91.1384   13.0849 C.2     0  UNK0        0.2239
     15 N          64.8975   90.4076   14.3931 N.2     0  UNK0       -0.0378
     16 C          63.8477   89.3363   14.3791 C.2     0  UNK0        0.3605
     17 N          63.1327   89.4051   13.0623 N.2     0  UNK0       -0.0547
     18 C          63.7407   90.5189   12.2624 C.3     0  UNK0        0.2975
     19 N          64.0040   86.3845   13.8666 N.pl3   1  PHE1       -0.3342
     20 H          64.2968   87.0151   13.1696 H       1  PHE1        0.1466
     21 CA         63.9209   84.9177   13.5641 C.3     1  PHE1        0.1029
     22 C          64.9644   83.9816   14.0977 C.3     1  PHE1        0.1568
     23 O          66.3098   84.5089   14.5000 O.3     1  PHE1       -0.3802
     24 H          66.7749   84.8404   13.7159 H       1  PHE1        0.2105
     25 CB         62.7943   84.3870   12.7280 C.3     1  PHE1        0.0484
     26 CG         62.5505   84.9447   11.3570 C.ar    1  PHE1       -0.0204
     27 CD1        63.3246   84.4189   10.1848 C.ar    1  PHE1       -0.0042
     28 CE1        63.0808   84.9766    8.8138 C.ar    1  PHE1       -0.0003
     29 CZ         62.0629   86.0602    8.6151 C.ar    1  PHE1       -0.0000
     30 CE2        61.2888   86.5861    9.7873 C.ar    1  PHE1       -0.0003
     31 CD2        61.5326   86.0284   11.1583 C.ar    1  PHE1       -0.0042
@<TRIPOS>BOND
     1     8     9    1
     2     9    10    2
     3    10    11    1
     4    11    12    1
     5    11    13    2
     6    13    14    1
     7    14    15    2
     8    15    16    1
     9    16     1    1
    10     1     2    1
    11     2    19    1
    12    19    21    1
    13    21    22    1
    14    22    23    1
    15    21    25    1
    16    25    26    1
    17    26    27   ar
    18    27    28   ar
    19    28    29   ar
    20    29    30   ar
    21    30    31   ar
    22     2     3    2
    23     3     4    1
    24     4     5    2
    25     5     6    1
    26     6     7    2
    27    16    17    2
    28    17    18    1
    29    18     9    1
    30    18    14    1
    31     6     1    1
    32    31    26   ar
    33    19    20    1
    34    23    24    1
@<TRIPOS>MOLECULE
*****
 31 34 0 0 0
SMALL
GASTEIGER

@<TRIPOS>ATOM
      1 C          63.6091   88.4547   15.5323 C.3     0  UNK0        0.2246
      2 C          63.7037   86.9813   15.2672 C.2     0  UNK0        0.0436
      3 C          63.3851   86.0012   16.3571 C.2     0  UNK0        0.0288
      4 C          62.9720   86.4944   17.7121 C.2     0  UNK0        0.0896
      5 N          62.8774   87.9677   17.9773 N.am    0  UNK0       -0.1770
      6 C          63.1960   88.9478   16.8873 C.2     0  UNK0        0.2627
      7 O          63.1014   90.4212   17.1524 O.2     0  UNK0       -0.2719
      8 C          62.5337   90.5977   10.1161 C.3     0  UNK0        0.0312
      9 C          63.6137   91.1948   10.9687 C.2     0  UNK0        0.0129
     10 C          64.4296   92.3421   10.4512 C.2     0  UNK0        0.0029
     11 C          65.5095   92.9392   11.3038 C.2     0  UNK0        0.0376
     12 BR         66.3255   94.0867   10.7863 Br      0  UNK0       -0.0489
     13 C          65.7737   92.3890   12.6741 C.2     0  UNK0        0.0535
     14 C          64.9578   91.2416   13.1916 C.2     0  UNK0        0.2239
     15 N          64.9887   90.4940   14.4916 N.2     0  UNK0       -0.0378
     16 C          63.9277   89.4348   14.4424 C.2     0  UNK0        0.3605
     17 N          63.2411   89.5278   13.1120 N.2     0  UNK0       -0.0547
     18 C          63.8778   90.6445   12.3389 C.3     0  UNK0        0.2975
     19 N          64.1168   86.4880   13.9122 N.pl3   1  PHE1       -0.3342
     20 H          64.3827   87.1299   13.2147 H       1  PHE1        0.1466
     21 CA         64.1248   85.0168   13.6199 C.3     1  PHE1        0.1029
     22 C          65.2481   84.1586   14.1217 C.3     1  PHE1        0.1568
     23 O          66.5635   84.7815   14.4844 O.3     1  PHE1       -0.3802
     24 H          66.9802   85.1444   13.6872 H       1  PHE1        0.2105
     25 CB         63.0096   84.4039   12.8259 C.3     1  PHE1        0.0484
     26 CG         62.7124   82.9395   12.9570 C.ar    1  PHE1       -0.0204
     27 CD1        61.9898   82.4262   14.1671 C.ar    1  PHE1       -0.0042
     28 CE1        61.6926   80.9618   14.2982 C.ar    1  PHE1       -0.0003
     29 CZ         62.1180   80.0106   13.2192 C.ar    1  PHE1       -0.0000
     30 CE2        62.8407   80.5239   12.0091 C.ar    1  PHE1       -0.0003
     31 CD2        63.1379   81.9882   11.8780 C.ar    1  PHE1       -0.0042
@<TRIPOS>BOND
     1     8     9    1
     2     9    10    2
     3    10    11    1
     4    11    12    1
     5    11    13    2
     6    13    14    1
     7    14    15    2
     8    15    16    1
     9    16     1    1
    10     1     2    1
    11     2    19    1
    12    19    21    1
    13    21    22    1
    14    22    23    1
    15    21    25    1
    16    25    26    1
    17    26    27   ar
    18    27    28   ar
    19    28    29   ar
    20    29    30   ar
    21    30    31   ar
    22     2     3    2
    23     3     4    1
    24     4     5    2
    25     5     6    1
    26     6     7    2
    27    16    17    2
    28    17    18    1
    29    18     9    1
    30    18    14    1
    31     6     1    1
    32    31    26   ar
    33    19    20    1
    34    23    24    1
@<TRIPOS>MOLECULE
*****
 31 34 0 0 0
SMALL
GASTEIGER

@<TRIPOS>ATOM
      1 C          63.7787   90.4335   13.3764 C.3     0  UNK0        0.2246
      2 C          63.6639   90.1575   14.8464 C.2     0  UNK0        0.0436
      3 C          64.4278   90.9953   15.8286 C.2     0  UNK0        0.0288
      4 C          65.3063   92.1090   15.3409 C.2     0  UNK0        0.0896
      5 N          65.4210   92.3850   13.8710 N.am    0  UNK0       -0.1770
      6 C          64.6572   91.5472   12.8888 C.2     0  UNK0        0.2627
      7 O          64.7719   91.8232   11.4189 O.2     0  UNK0       -0.2719
      8 C          62.4775   85.1098   11.1294 C.3     0  UNK0        0.0312
      9 C          61.8278   86.3454   10.5807 C.2     0  UNK0        0.0129
     10 C          60.8415   86.2378    9.4557 C.2     0  UNK0        0.0029
     11 C          60.1918   87.4733    8.9071 C.2     0  UNK0        0.0376
     12 BR         59.2055   87.3657    7.7820 Br      0  UNK0       -0.0489
     13 C          60.5284   88.8168    9.4834 C.2     0  UNK0        0.0535
     14 C          61.5147   88.9244   10.6084 C.2     0  UNK0        0.2239
     15 N          62.0403   90.1030   11.3729 N.2     0  UNK0       -0.0378
     16 C          63.0149   89.5958   12.3942 C.2     0  UNK0        0.3605
     17 N          63.0916   88.1037   12.2607 N.2     0  UNK0       -0.0547
     18 C          62.1644   87.6888   11.1570 C.3     0  UNK0        0.2975
     19 N          62.7855   89.0438   15.3341 N.pl3   1  PHE1       -0.3342
     20 H          61.8111   89.0912   15.2012 H       1  PHE1        0.1466
     21 CA         63.3914   87.8579   16.0243 C.3     1  PHE1        0.1029
     22 C          63.0046   87.5337   17.4368 C.3     1  PHE1        0.1568
     23 O          61.8954   86.5605   17.7061 O.3     1  PHE1       -0.3802
     24 H          61.0566   86.9303   17.3890 H       1  PHE1        0.2105
     25 CB         64.3842   86.9962   15.3019 C.3     1  PHE1        0.0484
     26 CG         64.0070   85.6055   14.8851 C.ar    1  PHE1       -0.0204
     27 CD1        62.6912   85.0255   15.3119 C.ar    1  PHE1       -0.0042
     28 CE1        62.3140   83.6349   14.8950 C.ar    1  PHE1       -0.0003
     29 CZ         63.2526   82.8242   14.0513 C.ar    1  PHE1       -0.0000
     30 CE2        64.5684   83.4042   13.6246 C.ar    1  PHE1       -0.0003
     31 CD2        64.9456   84.7949   14.0414 C.ar    1  PHE1       -0.0042
@<TRIPOS>BOND
     1     8     9    1
     2     9    10    2
     3    10    11    1
     4    11    12    1
     5    11    13    2
     6    13    14    1
     7    14    15    2
     8    15    16    1
     9    16     1    1
    10     1     2    1
    11     2    19    1
    12    19    21    1
    13    21    22    1
    14    22    23    1
    15    21    25    1
    16    25    26    1
    17    26    27   ar
    18    27    28   ar
    19    28    29   ar
    20    29    30   ar
    21    30    31   ar
    22     2     3    2
    23     3     4    1
    24     4     5    2
    25     5     6    1
    26     6     7    2
    27    16    17    2
    28    17    18    1
    29    18     9    1
    30    18    14    1
    31     6     1    1
    32    31    26   ar
    33    19    20    1
    34    23    24    1
@<TRIPOS>MOLECULE
*****
 31 34 0 0 0
SMALL
GASTEIGER

@<TRIPOS>ATOM
      1 C          61.3003   88.3705    9.6728 C.3     0  UNK0        0.2246
      2 C          61.6426   87.0065    9.1511 C.2     0  UNK0        0.0436
      3 C          60.7127   86.3119    8.2008 C.2     0  UNK0        0.0288
      4 C          59.4406   86.9812    7.7723 C.2     0  UNK0        0.0896
      5 N          59.0983   88.3453    8.2940 N.am    0  UNK0       -0.1770
      6 C          60.0281   89.0399    9.2442 C.2     0  UNK0        0.2627
      7 O          59.6858   90.4039    9.7659 O.2     0  UNK0       -0.2719
      8 C          64.0938   88.5180   14.8938 C.3     0  UNK0        0.0312
      9 C          64.2799   89.6269   13.9010 C.2     0  UNK0        0.0129
     10 C          65.1781   90.7829   14.2275 C.2     0  UNK0        0.0029
     11 C          65.3642   91.8918   13.2347 C.2     0  UNK0        0.0376
     12 BR         66.2626   93.0480   13.5613 Br      0  UNK0       -0.0489
     13 C          64.6521   91.8447   11.9153 C.2     0  UNK0        0.0535
     14 C          63.7538   90.6887   11.5888 C.2     0  UNK0        0.2239
     15 N          62.9271   90.3707   10.3783 N.2     0  UNK0       -0.0378
     16 C          62.2300   89.0652   10.6230 C.2     0  UNK0        0.3605
     17 N          62.6260   88.5764   11.9847 N.2     0  UNK0       -0.0547
     18 C          63.5677   89.5797   12.5817 C.3     0  UNK0        0.2975
     19 N          62.9147   86.3371    9.5796 N.pl3   1  PHE1       -0.3342
     20 H          63.7793   86.7857    9.4367 H       1  PHE1        0.1466
     21 CA         62.8695   84.9841   10.2257 C.3     1  PHE1        0.1029
     22 C          63.6102   83.8340    9.6104 C.3     1  PHE1        0.1568
     23 O          64.7318   83.1775   10.3594 O.3     1  PHE1       -0.3802
     24 H          65.4636   83.8058   10.4617 H       1  PHE1        0.2105
     25 CB         62.0836   84.7813   11.4871 C.3     1  PHE1        0.0484
     26 CG         62.7793   84.3441   12.7421 C.ar    1  PHE1       -0.0204
     27 CD1        63.7204   85.2788   13.4425 C.ar    1  PHE1       -0.0042
     28 CE1        64.4161   84.8416   14.6974 C.ar    1  PHE1       -0.0003
     29 CZ         64.1706   83.4697   15.2520 C.ar    1  PHE1       -0.0000
     30 CE2        63.2295   82.5350   14.5516 C.ar    1  PHE1       -0.0003
     31 CD2        62.5338   82.9722   13.2967 C.ar    1  PHE1       -0.0042
@<TRIPOS>BOND
     1     8     9    1
     2     9    10    2
     3    10    11    1
     4    11    12    1
     5    11    13    2
     6    13    14    1
     7    14    15    2
     8    15    16    1
     9    16     1    1
    10     1     2    1
    11     2    19    1
    12    19    21    1
    13    21    22    1
    14    22    23    1
    15    21    25    1
    16    25    26    1
    17    26    27   ar
    18    27    28   ar
    19    28    29   ar
    20    29    30   ar
    21    30    31   ar
    22     2     3    2
    23     3     4    1
    24     4     5    2
    25     5     6    1
    26     6     7    2
    27    16    17    2
    28    17    18    1
    29    18     9    1
    30    18    14    1
    31     6     1    1
    32    31    26   ar
    33    19    20    1
    34    23    24    1
@<TRIPOS>MOLECULE
*****
 31 34 0 0 0
SMALL
GASTEIGER

@<TRIPOS>ATOM
      1 C          64.2204   90.9188   13.5621 C.3     0  UNK0        0.2246
      2 C          65.3099   91.8169   13.0559 C.2     0  UNK0        0.0436
      3 C          66.1139   92.6377   14.0204 C.2     0  UNK0        0.0288
      4 C          65.8283   92.5604   15.4909 C.2     0  UNK0        0.0896
      5 N          64.7387   91.6623   15.9971 N.am    0  UNK0       -0.1770
      6 C          63.9348   90.8415   15.0327 C.2     0  UNK0        0.2627
      7 O          62.8453   89.9433   15.5389 O.2     0  UNK0       -0.2719
      8 C          62.4536   85.6145   11.6058 C.3     0  UNK0        0.0312
      9 C          61.9683   86.8692   10.9423 C.2     0  UNK0        0.0129
     10 C          61.0295   86.7857    9.7755 C.2     0  UNK0        0.0029
     11 C          60.5443   88.0403    9.1120 C.2     0  UNK0        0.0376
     12 BR         59.6054   87.9568    7.9451 Br      0  UNK0       -0.0489
     13 C          60.9979   89.3786    9.6153 C.2     0  UNK0        0.0535
     14 C          61.9367   89.4621   10.7822 C.2     0  UNK0        0.2239
     15 N          62.5513   90.6305   11.4942 N.2     0  UNK0       -0.0378
     16 C          63.4165   90.0979   12.5978 C.2     0  UNK0        0.3605
     17 N          63.3365   88.6004   12.5678 N.2     0  UNK0       -0.0547
     18 C          62.4220   88.2074   11.4457 C.3     0  UNK0        0.2975
     19 N          65.5956   91.8942   11.5855 N.pl3   1  PHE1       -0.3342
     20 H          65.0237   91.4103   10.9468 H       1  PHE1        0.1466
     21 CA         66.7526   92.7090   11.0880 C.3     1  PHE1        0.1029
     22 C          67.9133   92.0335   10.4198 C.3     1  PHE1        0.1568
     23 O          69.1564   92.8128   10.1077 O.3     1  PHE1       -0.3802
     24 H          68.9558   93.4881    9.4409 H       1  PHE1        0.2105
     25 CB         66.7489   94.1992   11.2587 C.3     1  PHE1        0.0484
     26 CG         66.3674   95.0848   10.1097 C.ar    1  PHE1       -0.0204
     27 CD1        67.1926   95.0857    8.8572 C.ar    1  PHE1       -0.0042
     28 CE1        66.8111   95.9713    7.7082 C.ar    1  PHE1       -0.0003
     29 CZ         65.6042   96.8560    7.8117 C.ar    1  PHE1       -0.0000
     30 CE2        64.7789   96.8551    9.0642 C.ar    1  PHE1       -0.0003
     31 CD2        65.1605   95.9695   10.2132 C.ar    1  PHE1       -0.0042
@<TRIPOS>BOND
     1     8     9    1
     2     9    10    2
     3    10    11    1
     4    11    12    1
     5    11    13    2
     6    13    14    1
     7    14    15    2
     8    15    16    1
     9    16     1    1
    10     1     2    1
    11     2    19    1
    12    19    21    1
    13    21    22    1
    14    22    23    1
    15    21    25    1
    16    25    26    1
    17    26    27   ar
    18    27    28   ar
    19    28    29   ar
    20    29    30   ar
    21    30    31   ar
    22     2     3    2
    23     3     4    1
    24     4     5    2
    25     5     6    1
    26     6     7    2
    27    16    17    2
    28    17    18    1
    29    18     9    1
    30    18    14    1
    31     6     1    1
    32    31    26   ar
    33    19    20    1
    34    23    24    1
@<TRIPOS>MOLECULE
*****
 31 34 0 0 0
SMALL
GASTEIGER

@<TRIPOS>ATOM
      1 C          62.9417   84.7735   13.2506 C.3     0  UNK0        0.2246
      2 C          63.1219   84.0448   11.9519 C.2     0  UNK0        0.0436
      3 C          62.7451   82.5967   11.8459 C.2     0  UNK0        0.0288
      4 C          62.1880   81.8774   13.0385 C.2     0  UNK0        0.0896
      5 N          62.0078   82.6061   14.3372 N.am    0  UNK0       -0.1770
      6 C          62.3847   84.0541   14.4432 C.2     0  UNK0        0.2627
      7 O          62.2044   84.7828   15.7418 O.2     0  UNK0       -0.2719
      8 C          62.8213   90.2589   11.0189 C.3     0  UNK0        0.0312
      9 C          63.5229   89.9813   12.3153 C.2     0  UNK0        0.0129
     10 C          64.2000   91.0966   13.0554 C.2     0  UNK0        0.0029
     11 C          64.9016   90.8191   14.3517 C.2     0  UNK0        0.0376
     12 BR         65.5788   91.9344   15.0918 Br      0  UNK0       -0.0489
     13 C          64.9262   89.4262   14.9081 C.2     0  UNK0        0.0535
     14 C          64.2490   88.3110   14.1681 C.2     0  UNK0        0.2239
     15 N          64.1075   86.8481   14.4678 N.2     0  UNK0       -0.0378
     16 C          63.3185   86.2215   13.3567 C.2     0  UNK0        0.3605
     17 N          62.9723   87.2971   12.3702 N.2     0  UNK0       -0.0547
     18 C          63.5474   88.5885   12.8716 C.3     0  UNK0        0.2975
     19 N          63.6789   84.7641   10.7593 N.pl3   1  PHE1       -0.3342
     20 H          64.6467   84.9321   10.6936 H       1  PHE1        0.1466
     21 CA         62.7614   85.2272    9.6668 C.3     1  PHE1        0.1029
     22 C          63.2617   85.3187    8.2556 C.3     1  PHE1        0.1568
     23 O          62.5381   84.6006    7.1553 O.3     1  PHE1       -0.3802
     24 H          62.6109   83.6430    7.2916 H       1  PHE1        0.2105
     25 CB         61.3435   85.5990    9.9854 C.3     1  PHE1        0.0484
     26 CG         60.6446   86.6519    9.1775 C.ar    1  PHE1       -0.0204
     27 CD1        60.8949   88.1035    9.4603 C.ar    1  PHE1       -0.0042
     28 CE1        60.1960   89.1565    8.6523 C.ar    1  PHE1       -0.0003
     29 CZ         59.2467   88.7578    7.5615 C.ar    1  PHE1       -0.0000
     30 CE2        58.9964   87.3062    7.2787 C.ar    1  PHE1       -0.0003
     31 CD2        59.6953   86.2532    8.0866 C.ar    1  PHE1       -0.0042
@<TRIPOS>BOND
     1     8     9    1
     2     9    10    2
     3    10    11    1
     4    11    12    1
     5    11    13    2
     6    13    14    1
     7    14    15    2
     8    15    16    1
     9    16     1    1
    10     1     2    1
    11     2    19    1
    12    19    21    1
    13    21    22    1
    14    22    23    1
    15    21    25    1
    16    25    26    1
    17    26    27   ar
    18    27    28   ar
    19    28    29   ar
    20    29    30   ar
    21    30    31   ar
    22     2     3    2
    23     3     4    1
    24     4     5    2
    25     5     6    1
    26     6     7    2
    27    16    17    2
    28    17    18    1
    29    18     9    1
    30    18    14    1
    31     6     1    1
    32    31    26   ar
    33    19    20    1
    34    23    24    1
@<TRIPOS>MOLECULE
*****
 31 34 0 0 0
SMALL
GASTEIGER

@<TRIPOS>ATOM
      1 C          62.5460   88.0435   11.4405 C.3     0  UNK0        0.2246
      2 C          63.1831   89.1572   12.2174 C.2     0  UNK0        0.0436
      3 C          63.0392   90.5754   11.7504 C.2     0  UNK0        0.0288
      4 C          62.2583   90.8798   10.5064 C.2     0  UNK0        0.0896
      5 N          61.6212   89.7661    9.7294 N.am    0  UNK0       -0.1770
      6 C          61.7651   88.3479   10.1965 C.2     0  UNK0        0.2627
      7 O          61.1281   87.2341    9.4195 O.2     0  UNK0       -0.2719
      8 C          64.2221   84.1845   15.6098 C.3     0  UNK0        0.0312
      9 C          63.6290   83.6996   14.3202 C.2     0  UNK0        0.0129
     10 C          63.4570   82.2291   14.0798 C.2     0  UNK0        0.0029
     11 C          62.8639   81.7442   12.7902 C.2     0  UNK0        0.0376
     12 BR         62.6919   80.2736   12.5498 Br      0  UNK0       -0.0489
     13 C          62.4428   82.7300   11.7409 C.2     0  UNK0        0.0535
     14 C          62.6147   84.2006   11.9813 C.2     0  UNK0        0.2239
     15 N          62.2946   85.3995   11.1386 N.2     0  UNK0       -0.0378
     16 C          62.6899   86.6253   11.9074 C.2     0  UNK0        0.3605
     17 N          63.2543   86.1840   13.2253 N.2     0  UNK0       -0.0547
     18 C          63.2078   84.6854   13.2709 C.3     0  UNK0        0.2975
     19 N          63.9640   88.8529   13.4614 N.pl3   1  PHE1       -0.3342
     20 H          64.5954   88.0976   13.4738 H       1  PHE1        0.1466
     21 CA         63.7830   89.6992   14.6865 C.3     1  PHE1        0.1029
     22 C          63.3213   89.0732   15.9691 C.3     1  PHE1        0.1568
     23 O          63.3332   87.5811   16.1223 O.3     1  PHE1       -0.3802
     24 H          62.6919   87.1881   15.5097 H       1  PHE1        0.2105
     25 CB         64.0637   91.1716   14.6291 C.3     1  PHE1        0.0484
     26 CG         65.4693   91.6735   14.7791 C.ar    1  PHE1       -0.0204
     27 CD1        66.4474   91.5125   13.6533 C.ar    1  PHE1       -0.0042
     28 CE1        67.8529   92.0144   13.8033 C.ar    1  PHE1       -0.0003
     29 CZ         68.2804   92.6774   15.0791 C.ar    1  PHE1       -0.0000
     30 CE2        67.3023   92.8384   16.2049 C.ar    1  PHE1       -0.0003
     31 CD2        65.8968   92.3365   16.0549 C.ar    1  PHE1       -0.0042
@<TRIPOS>BOND
     1     8     9    1
     2     9    10    2
     3    10    11    1
     4    11    12    1
     5    11    13    2
     6    13    14    1
     7    14    15    2
     8    15    16    1
     9    16     1    1
    10     1     2    1
    11     2    19    1
    12    19    21    1
    13    21    22    1
    14    22    23    1
    15    21    25    1
    16    25    26    1
    17    26    27   ar
    18    27    28   ar
    19    28    29   ar
    20    29    30   ar
    21    30    31   ar
    22     2     3    2
    23     3     4    1
    24     4     5    2
    25     5     6    1
    26     6     7    2
    27    16    17    2
    28    17    18    1
    29    18     9    1
    30    18    14    1
    31     6     1    1
    32    31    26   ar
    33    19    20    1
    34    23    24    1
@<TRIPOS>MOLECULE
*****
 31 34 0 0 0
SMALL
GASTEIGER

@<TRIPOS>ATOM
      1 C          61.2275   88.2074    9.4243 C.3     0  UNK0        0.2246
      2 C          61.6239   86.8228    9.0049 C.2     0  UNK0        0.0436
      3 C          60.7446   86.0403    8.0751 C.2     0  UNK0        0.0288
      4 C          59.4690   86.6422    7.5647 C.2     0  UNK0        0.0896
      5 N          59.0726   88.0267    7.9841 N.am    0  UNK0       -0.1770
      6 C          59.9519   88.8093    8.9139 C.2     0  UNK0        0.2627
      7 O          59.5555   90.1938    9.3333 O.2     0  UNK0       -0.2719
      8 C          64.8667   92.7841   10.3701 C.3     0  UNK0        0.0312
      9 C          64.5439   91.8281   11.4800 C.2     0  UNK0        0.0129
     10 C          65.1439   92.0279   12.8402 C.2     0  UNK0        0.0029
     11 C          64.8212   91.0720   13.9501 C.2     0  UNK0        0.0376
     12 BR         65.4212   91.2718   15.3103 Br      0  UNK0       -0.0489
     13 C          63.8983   89.9162   13.6999 C.2     0  UNK0        0.0535
     14 C          63.2983   89.7164   12.3397 C.2     0  UNK0        0.2239
     15 N          62.3624   88.6766   11.7985 N.2     0  UNK0       -0.0378
     16 C          62.1067   88.9900   10.3541 C.2     0  UNK0        0.3605
     17 N          62.8847   90.2234   10.0026 N.2     0  UNK0       -0.0547
     18 C          63.6211   90.6724   11.2298 C.3     0  UNK0        0.2975
     19 N          62.8995   86.2209    9.5152 N.pl3   1  PHE1       -0.3342
     20 H          63.7602   86.6616    9.3305 H       1  PHE1        0.1466
     21 CA         62.8638   84.9474   10.3070 C.3     1  PHE1        0.1029
     22 C          63.5943   83.7349    9.8107 C.3     1  PHE1        0.1568
     23 O          64.7708   83.2033   10.5744 O.3     1  PHE1       -0.3802
     24 H          65.4930   83.8503   10.5472 H       1  PHE1        0.2105
     25 CB         62.0975   84.8863   11.5950 C.3     1  PHE1        0.0484
     26 CG         62.8281   84.7295   12.8956 C.ar    1  PHE1       -0.0204
     27 CD1        63.6735   85.8516   13.4211 C.ar    1  PHE1       -0.0042
     28 CE1        64.4042   85.6948   14.7217 C.ar    1  PHE1       -0.0003
     29 CZ         64.2894   84.4158   15.4969 C.ar    1  PHE1       -0.0000
     30 CE2        63.4441   83.2937   14.9714 C.ar    1  PHE1       -0.0003
     31 CD2        62.7134   83.4505   13.6709 C.ar    1  PHE1       -0.0042
@<TRIPOS>BOND
     1     8     9    1
     2     9    10    2
     3    10    11    1
     4    11    12    1
     5    11    13    2
     6    13    14    1
     7    14    15    2
     8    15    16    1
     9    16     1    1
    10     1     2    1
    11     2    19    1
    12    19    21    1
    13    21    22    1
    14    22    23    1
    15    21    25    1
    16    25    26    1
    17    26    27   ar
    18    27    28   ar
    19    28    29   ar
    20    29    30   ar
    21    30    31   ar
    22     2     3    2
    23     3     4    1
    24     4     5    2
    25     5     6    1
    26     6     7    2
    27    16    17    2
    28    17    18    1
    29    18     9    1
    30    18    14    1
    31     6     1    1
    32    31    26   ar
    33    19    20    1
    34    23    24    1
@<TRIPOS>MOLECULE
*****
 31 34 0 0 0
SMALL
GASTEIGER

@<TRIPOS>ATOM
      1 C          60.9066   87.3777    9.1893 C.3     0  UNK0        0.2246
      2 C          61.1362   88.8494    9.3664 C.2     0  UNK0        0.0436
      3 C          60.4441   89.8300    8.4667 C.2     0  UNK0        0.0288
      4 C          59.5225   89.3390    7.3900 C.2     0  UNK0        0.0896
      5 N          59.2929   87.8673    7.2128 N.am    0  UNK0       -0.1770
      6 C          59.9850   86.8867    8.1126 C.2     0  UNK0        0.2627
      7 O          59.7555   85.4149    7.9354 O.2     0  UNK0       -0.2719
      8 C          64.4833   82.7039    9.8588 C.3     0  UNK0        0.0312
      9 C          63.8732   83.3713   11.0556 C.2     0  UNK0        0.0129
     10 C          64.1674   82.8558   12.4332 C.2     0  UNK0        0.0029
     11 C          63.5574   83.5231   13.6299 C.2     0  UNK0        0.0376
     12 BR         63.8517   83.0075   15.0075 Br      0  UNK0       -0.0489
     13 C          62.6529   84.7061   13.4493 C.2     0  UNK0        0.0535
     14 C          62.3586   85.2217   12.0717 C.2     0  UNK0        0.2239
     15 N          61.5119   86.3606   11.5860 N.2     0  UNK0       -0.0378
     16 C          61.5987   86.3970   10.0890 C.2     0  UNK0        0.3605
     17 N          62.4991   85.2807    9.6495 N.2     0  UNK0       -0.0547
     18 C          62.9688   84.5543   10.8749 C.3     0  UNK0        0.2975
     19 N          62.0578   89.3405   10.4432 N.pl3   1  PHE1       -0.3342
     20 H          63.0240   89.4132   10.2687 H       1  PHE1        0.1466
     21 CA         61.5074   89.7209   11.7857 C.3     1  PHE1        0.1029
     22 C          60.0250   89.7253   12.0146 C.3     1  PHE1        0.1568
     23 O          59.3074   88.4410   12.3073 O.3     1  PHE1       -0.3802
     24 H          59.3498   87.8625   11.5298 H       1  PHE1        0.2105
     25 CB         62.4394   90.0968   12.8992 C.3     1  PHE1        0.0484
     26 CG         63.6634   90.9139   12.6092 C.ar    1  PHE1       -0.0204
     27 CD1        63.8545   91.5226   11.2517 C.ar    1  PHE1       -0.0042
     28 CE1        65.0786   92.3397   10.9616 C.ar    1  PHE1       -0.0003
     29 CZ         66.1115   92.5481   12.0291 C.ar    1  PHE1       -0.0000
     30 CE2        65.9204   91.9394   13.3866 C.ar    1  PHE1       -0.0003
     31 CD2        64.6964   91.1223   13.6767 C.ar    1  PHE1       -0.0042
@<TRIPOS>BOND
     1     8     9    1
     2     9    10    2
     3    10    11    1
     4    11    12    1
     5    11    13    2
     6    13    14    1
     7    14    15    2
     8    15    16    1
     9    16     1    1
    10     1     2    1
    11     2    19    1
    12    19    21    1
    13    21    22    1
    14    22    23    1
    15    21    25    1
    16    25    26    1
    17    26    27   ar
    18    27    28   ar
    19    28    29   ar
    20    29    30   ar
    21    30    31   ar
    22     2     3    2
    23     3     4    1
    24     4     5    2
    25     5     6    1
    26     6     7    2
    27    16    17    2
    28    17    18    1
    29    18     9    1
    30    18    14    1
    31     6     1    1
    32    31    26   ar
    33    19    20    1
    34    23    24    1
