@<TRIPOS>MOLECULE
*****
 36 39 0 0 0
SMALL
GASTEIGER

@<TRIPOS>ATOM
      1 C          63.9079   90.8253   13.3737 C.3     1  UNL1        0.1380
      2 O          63.4208   91.5834   12.1746 O.3     1  UNL1       -0.3545
      3 C          62.8020   90.8482   11.0228 C.3     1  UNL1        0.1442
      4 C          62.6703   89.3548   11.0702 C.3     1  UNL1        0.0589
      5 C          63.1574   88.5966   12.2693 C.3     1  UNL1        0.1466
      6 C          63.0257   87.1031   12.3167 C.ar    1  UNL1        0.0618
      7 C          62.4069   86.3678   11.1649 C.ar    1  UNL1        0.1407
      8 F          61.8294   86.7922    9.8472 F       1  UNL1       -0.2043
      9 C          62.2752   84.8744   11.2123 C.ar    1  UNL1        0.0319
     10 C          62.7623   84.1161   12.4114 C.ar    1  UNL1        0.0351
     11 C          63.3811   84.8514   13.5632 C.ar    1  UNL1        0.1737
     12 F          63.8682   84.0932   14.7622 F       1  UNL1       -0.2010
     13 C          63.5128   86.3449   13.5158 C.ar    1  UNL1        0.1655
     14 O          64.1316   87.0801   14.6675 O.3     1  UNL1       -0.4732
     15 C          64.2633   88.5736   14.6201 C.3     1  UNL1        0.2099
     16 C          63.7762   89.3318   13.4210 C.3     1  UNL1        0.0971
     17 S          62.5386   87.8613   11.1175 S.O2    1  UNL1        0.0094
     18 O          62.9178   87.8766   10.4165 O.2     1  UNL1       -0.1684
     19 O          61.2853   87.2724   11.6941 O.2     1  UNL1       -0.1684
     20 C          61.9198   87.1261    9.9658 C.ar    1  UNL1        0.1059
     21 C          60.4393   87.2017    9.7362 C.ar    1  UNL1        0.0192
     22 C          59.8205   86.4664    8.5845 C.ar    1  UNL1        0.0127
     23 C          60.6822   85.6556    7.6623 C.ar    1  UNL1        0.0578
     24 CL         60.0634   84.9204    6.5106 Cl      1  UNL1       -0.0822
     25 C          62.1625   85.5801    7.8919 C.ar    1  UNL1        0.0127
     26 C          62.7813   86.3153    9.0437 C.ar    1  UNL1        0.0192
     27 C          64.5267   91.5605   14.5254 C.3     1  UNL1        0.1210
     28 N          65.5130   92.6612   14.2696 N.3     1  UNL1       -0.1735
     29 H          65.7507   92.6192   13.2785 H       1  UNL1        0.1488
     30 O          67.5615   92.7696   13.7290 O.2     1  UNL1       -0.1497
     31 S          66.8088   92.6977   15.0244 S.O2    1  UNL1        0.1272
     32 O          66.0561   92.6257   16.3199 O.2     1  UNL1       -0.1497
     33 C          68.1045   92.7341   15.7793 C.3     1  UNL1        0.5357
     34 F          68.0281   94.2310   15.8381 F       1  UNL1       -0.1493
     35 F          68.1808   91.2372   15.7205 F       1  UNL1       -0.1493
     36 F          69.4002   92.7706   16.5342 F       1  UNL1       -0.1493
@<TRIPOS>BOND
     1    30    31    2
     2    31    32    2
     3    31    28    1
     4    28    27    1
     5     1    27    1
     6     1     2    1
     7     2     3    1
     8     3     4    1
     9     4     5    1
    10     5    17    1
    11    17    18    2
    12    17    19    2
    13    17    20    1
    14    20    21   ar
    15    21    22   ar
    16    22    23   ar
    17    23    24    1
    18    23    25   ar
    19    25    26   ar
    20     5     6    1
    21     6     7   ar
    22     7     8    1
    23     7     9   ar
    24     9    10   ar
    25    10    11   ar
    26    11    12    1
    27    11    13   ar
    28    13    14    1
    29    14    15    1
    30    16    15    1
    31    31    33    1
    32    33    34    1
    33    33    35    1
    34    33    36    1
    35    16     1    1
    36    16     5    1
    37    26    20   ar
    38    13     6   ar
    39    28    29    1
@<TRIPOS>MOLECULE
*****
 36 39 0 0 0
SMALL
GASTEIGER

@<TRIPOS>ATOM
      1 C          63.8442   90.8472   13.2680 C.3     1  UNL1        0.1380
      2 O          63.3641   91.5866   12.0544 O.3     1  UNL1       -0.3545
      3 C          62.7655   90.8321   10.9045 C.3     1  UNL1        0.1442
      4 C          62.6469   89.3382   10.9681 C.3     1  UNL1        0.0589
      5 C          63.1270   88.5988   12.1816 C.3     1  UNL1        0.1466
      6 C          63.0084   87.1048   12.2453 C.ar    1  UNL1        0.0618
      7 C          62.4098   86.3503   11.0953 C.ar    1  UNL1        0.1407
      8 F          61.8438   86.7537    9.7661 F       1  UNL1       -0.2043
      9 C          62.2913   84.8564   11.1589 C.ar    1  UNL1        0.0319
     10 C          62.7713   84.1168   12.3725 C.ar    1  UNL1        0.0351
     11 C          63.3700   84.8713   13.5225 C.ar    1  UNL1        0.1737
     12 F          63.8500   84.1319   14.7360 F       1  UNL1       -0.2010
     13 C          63.4885   86.3653   13.4588 C.ar    1  UNL1        0.1655
     14 O          64.0871   87.1198   14.6088 O.3     1  UNL1       -0.4732
     15 C          64.2057   88.6138   14.5452 C.3     1  UNL1        0.2099
     16 C          63.7256   89.3533   13.3316 C.3     1  UNL1        0.0971
     17 S          62.5284   87.8443   11.0317 S.O2    1  UNL1        0.0094
     18 O          62.9036   87.8734   10.3290 O.2     1  UNL1       -0.1684
     19 O          61.2986   87.2121   11.6131 O.2     1  UNL1       -0.1684
     20 C          61.9297   87.0898    9.8817 C.ar    1  UNL1        0.1059
     21 C          62.8074   86.2643    8.9882 C.ar    1  UNL1        0.0192
     22 C          62.2087   85.5098    7.8382 C.ar    1  UNL1        0.0127
     23 C          60.7325   85.5808    7.5819 C.ar    1  UNL1        0.0578
     24 CL         60.1338   84.8263    6.4319 Cl      1  UNL1       -0.0822
     25 C          59.8549   86.4063    8.4754 C.ar    1  UNL1        0.0127
     26 C          60.4535   87.1608    9.6253 C.ar    1  UNL1        0.0192
     27 C          64.4428   91.6017   14.4179 C.3     1  UNL1        0.1210
     28 N          65.4624   92.6720   14.1632 N.3     1  UNL1       -0.1735
     29 H          65.7088   92.6148   13.1751 H       1  UNL1        0.1488
     30 O          65.9895   92.4943   16.2103 O.2     1  UNL1       -0.1497
     31 S          66.7509   92.6784   14.9311 S.O2    1  UNL1        0.1272
     32 O          67.5123   92.8625   13.6519 O.2     1  UNL1       -0.1497
     33 C          68.0395   92.6848   15.6990 C.3     1  UNL1        0.5357
     34 F          68.0508   91.1848   15.6925 F       1  UNL1       -0.1493
     35 F          68.0281   94.1847   15.7055 F       1  UNL1       -0.1493
     36 F          69.3280   92.6912   16.4669 F       1  UNL1       -0.1493
@<TRIPOS>BOND
     1    30    31    2
     2    31    32    2
     3    31    28    1
     4    28    27    1
     5     1    27    1
     6     1     2    1
     7     2     3    1
     8     3     4    1
     9     4     5    1
    10     5    17    1
    11    17    18    2
    12    17    19    2
    13    17    20    1
    14    20    21   ar
    15    21    22   ar
    16    22    23   ar
    17    23    24    1
    18    23    25   ar
    19    25    26   ar
    20     5     6    1
    21     6     7   ar
    22     7     8    1
    23     7     9   ar
    24     9    10   ar
    25    10    11   ar
    26    11    12    1
    27    11    13   ar
    28    13    14    1
    29    14    15    1
    30    16    15    1
    31    31    33    1
    32    33    34    1
    33    33    35    1
    34    33    36    1
    35    16     1    1
    36    16     5    1
    37    26    20   ar
    38    13     6   ar
    39    28    29    1
@<TRIPOS>MOLECULE
*****
 36 39 0 0 0
SMALL
GASTEIGER

@<TRIPOS>ATOM
      1 C          63.8720   89.4195   14.1520 C.3     1  UNL1        0.1380
      2 O          64.5372   88.4428   15.0759 O.3     1  UNL1       -0.3545
      3 C          64.5084   86.9760   14.7637 C.3     1  UNL1        0.1442
      4 C          63.8143   86.4858   13.5276 C.3     1  UNL1        0.0589
      5 C          63.1490   87.4624   12.6038 C.3     1  UNL1        0.1466
      6 C          62.4549   86.9722   11.3677 C.ar    1  UNL1        0.0618
      7 C          62.4260   85.5054   11.0555 C.ar    1  UNL1        0.1407
      8 F          62.9705   84.2843   11.7356 F       1  UNL1       -0.2043
      9 C          61.7319   85.0151    9.8194 C.ar    1  UNL1        0.0319
     10 C          61.0666   85.9918    8.8955 C.ar    1  UNL1        0.0351
     11 C          61.0955   87.4587    9.2077 C.ar    1  UNL1        0.1737
     12 F          60.4303   88.4354    8.2838 F       1  UNL1       -0.2010
     13 C          61.7897   87.9489   10.4438 C.ar    1  UNL1        0.1655
     14 O          61.8185   89.4157   10.7560 O.3     1  UNL1       -0.4732
     15 C          62.5126   89.9060   11.9920 C.3     1  UNL1        0.2099
     16 C          63.1779   88.9293   12.9160 C.3     1  UNL1        0.0971
     17 S          63.1202   85.9955   12.2916 S.O2    1  UNL1        0.0094
     18 O          63.8158   85.6233   12.1781 O.2     1  UNL1       -0.1684
     19 O          61.6597   85.6535   12.2897 O.2     1  UNL1       -0.1684
     20 C          63.0913   84.5287   11.9794 C.ar    1  UNL1        0.1059
     21 C          62.2433   83.6035   12.8011 C.ar    1  UNL1        0.0192
     22 C          62.2144   82.1367   12.4889 C.ar    1  UNL1        0.0127
     23 C          63.0335   81.5949   11.3550 C.ar    1  UNL1        0.0578
     24 CL         63.0047   80.1281   11.0428 Cl      1  UNL1       -0.0822
     25 C          63.8815   82.5201   10.5334 C.ar    1  UNL1        0.0127
     26 C          63.9103   83.9869   10.8456 C.ar    1  UNL1        0.0192
     27 C          63.9009   90.8864   14.4642 C.3     1  UNL1        0.1210
     28 N          64.9932   91.7503   13.9072 N.3     1  UNL1       -0.1735
     29 H          65.3143   91.3023   13.0490 H       1  UNL1        0.1488
     30 O          65.3445   92.4621   15.8745 O.2     1  UNL1       -0.1497
     31 S          66.2148   92.0377   14.7289 S.O2    1  UNL1        0.1272
     32 O          67.0852   91.6132   13.5833 O.2     1  UNL1       -0.1497
     33 C          67.4364   92.3250   15.5506 C.3     1  UNL1        0.5357
     34 F          68.3066   91.8866   14.4101 F       1  UNL1       -0.1493
     35 F          66.5663   92.7634   16.6910 F       1  UNL1       -0.1493
     36 F          68.6580   92.6123   16.3722 F       1  UNL1       -0.1493
@<TRIPOS>BOND
     1    30    31    2
     2    31    32    2
     3    31    28    1
     4    28    27    1
     5     1    27    1
     6     1     2    1
     7     2     3    1
     8     3     4    1
     9     4     5    1
    10     5    17    1
    11    17    18    2
    12    17    19    2
    13    17    20    1
    14    20    21   ar
    15    21    22   ar
    16    22    23   ar
    17    23    24    1
    18    23    25   ar
    19    25    26   ar
    20     5     6    1
    21     6     7   ar
    22     7     8    1
    23     7     9   ar
    24     9    10   ar
    25    10    11   ar
    26    11    12    1
    27    11    13   ar
    28    13    14    1
    29    14    15    1
    30    16    15    1
    31    31    33    1
    32    33    34    1
    33    33    35    1
    34    33    36    1
    35    16     1    1
    36    16     5    1
    37    26    20   ar
    38    13     6   ar
    39    28    29    1
@<TRIPOS>MOLECULE
*****
 36 39 0 0 0
SMALL
GASTEIGER

@<TRIPOS>ATOM
      1 C          62.3311   89.3775   11.6948 C.3     1  UNL1        0.1380
      2 O          62.1494   89.6976   10.2407 O.3     1  UNL1       -0.3545
      3 C          62.9347   90.8114    9.6141 C.3     1  UNL1        0.1442
      4 C          63.9018   91.6051   10.4416 C.3     1  UNL1        0.0589
      5 C          64.0835   91.2850   11.8957 C.3     1  UNL1        0.1466
      6 C          65.0506   92.0787   12.7233 C.ar    1  UNL1        0.0618
      7 C          65.8360   93.1925   12.0967 C.ar    1  UNL1        0.1407
      8 F          65.9045   93.7695   10.7138 F       1  UNL1       -0.2043
      9 C          66.8031   93.9862   12.9242 C.ar    1  UNL1        0.0319
     10 C          66.9848   93.6661   14.3784 C.ar    1  UNL1        0.0351
     11 C          66.1995   92.5523   15.0050 C.ar    1  UNL1        0.1737
     12 F          66.3812   92.2321   16.4591 F       1  UNL1       -0.2010
     13 C          65.2323   91.7586   14.1774 C.ar    1  UNL1        0.1655
     14 O          64.4470   90.6448   14.8040 O.3     1  UNL1       -0.4732
     15 C          63.4799   89.8511   13.9765 C.3     1  UNL1        0.2099
     16 C          63.2981   90.1712   12.5223 C.3     1  UNL1        0.0971
     17 S          64.8689   92.3988   11.2691 S.O2    1  UNL1        0.0094
     18 O          64.4654   93.0047   10.9443 O.2     1  UNL1       -0.1684
     19 O          66.2987   91.9901   11.4658 O.2     1  UNL1       -0.1684
     20 C          65.6543   93.5126   10.6425 C.ar    1  UNL1        0.1059
     21 C          65.1778   94.9294   10.7684 C.ar    1  UNL1        0.0192
     22 C          65.9632   96.0432   10.1418 C.ar    1  UNL1        0.0127
     23 C          67.2250   95.7402    9.3893 C.ar    1  UNL1        0.0578
     24 CL         68.0104   96.8540    8.7627 Cl      1  UNL1       -0.0822
     25 C          67.7013   94.3235    9.2635 C.ar    1  UNL1        0.0127
     26 C          66.9160   93.2097    9.8901 C.ar    1  UNL1        0.0192
     27 C          61.5457   88.2637   12.3214 C.3     1  UNL1        0.1210
     28 N          60.9498   87.1896   11.4606 N.3     1  UNL1       -0.1735
     29 H          60.2807   86.6841   12.0414 H       1  UNL1        0.1488
     30 O          61.1386   86.3688    9.5137 O.2     1  UNL1       -0.1497
     31 S          61.8361   86.1598   10.8251 S.O2    1  UNL1        0.1272
     32 O          62.5336   85.9508   12.1365 O.2     1  UNL1       -0.1497
     33 C          62.7225   85.1300   10.1895 C.3     1  UNL1        0.5357
     34 F          62.5861   84.2622   11.4053 F       1  UNL1       -0.1493
     35 F          62.8589   85.9979    8.9737 F       1  UNL1       -0.1493
     36 F          63.6088   84.1003    9.5539 F       1  UNL1       -0.1493
@<TRIPOS>BOND
     1    30    31    2
     2    31    32    2
     3    31    28    1
     4    28    27    1
     5     1    27    1
     6     1     2    1
     7     2     3    1
     8     3     4    1
     9     4     5    1
    10     5    17    1
    11    17    18    2
    12    17    19    2
    13    17    20    1
    14    20    21   ar
    15    21    22   ar
    16    22    23   ar
    17    23    24    1
    18    23    25   ar
    19    25    26   ar
    20     5     6    1
    21     6     7   ar
    22     7     8    1
    23     7     9   ar
    24     9    10   ar
    25    10    11   ar
    26    11    12    1
    27    11    13   ar
    28    13    14    1
    29    14    15    1
    30    16    15    1
    31    31    33    1
    32    33    34    1
    33    33    35    1
    34    33    36    1
    35    16     1    1
    36    16     5    1
    37    26    20   ar
    38    13     6   ar
    39    28    29    1
