@<TRIPOS>MOLECULE
*****
 45 48 0 0 0
SMALL
GASTEIGER

@<TRIPOS>ATOM
      1 N          62.6730   90.5145   10.6607 N.am    1  UNL1       -0.2724
      2 C          63.9300   91.2723   10.9701 C.2     1  UNL1        0.2491
      3 O          65.2143   90.9052   10.2877 O.2     1  UNL1       -0.2727
      4 C          61.3886   90.8817   11.3431 C.3     1  UNL1        0.1111
      5 C          60.0754   90.5462   10.7007 C.3     1  UNL1        0.0939
      6 N          59.5673   89.1351   10.7253 N.3     1  UNL1       -0.2712
      7 C          58.2781   89.0109   12.9776 C.3     1  UNL1        0.0188
      8 C          59.3053   88.4551   12.0365 C.3     1  UNL1        0.0722
      9 C          59.3210   88.4040    9.4389 C.3     1  UNL1        0.0722
     10 C          59.7312   89.0216    8.1349 C.3     1  UNL1        0.0188
     11 C          62.7004   89.3894    9.6690 C.3     1  UNL1        0.1202
     12 C          62.6978   87.9677   10.1473 C.ar    1  UNL1       -0.0023
     13 C          62.6330   86.8432    9.1568 C.ar    1  UNL1       -0.0026
     14 C          62.6305   85.4216    9.6351 C.ar    1  UNL1       -0.0003
     15 C          62.6927   85.1244   11.1041 C.ar    1  UNL1       -0.0000
     16 C          62.7576   86.2489   12.0947 C.ar    1  UNL1       -0.0003
     17 C          62.7601   87.6705   11.6163 C.ar    1  UNL1       -0.0026
     18 C          62.6902   83.7027   11.5824 C.ar    1  UNL1       -0.0000
     19 C          62.3821   83.3949   13.0178 C.ar    1  UNL1       -0.0001
     20 C          62.3795   81.9731   13.4961 C.ar    1  UNL1        0.0039
     21 C          62.6851   80.8593   12.5391 C.ar    1  UNL1        0.0714
     22 C          62.9933   81.1672   11.1036 C.ar    1  UNL1        0.0039
     23 C          62.9958   82.5889   10.6254 C.ar    1  UNL1       -0.0001
     24 C          62.6826   79.4376   13.0173 C.3     1  UNL1        0.4186
     25 F          62.6801   78.0159   13.4956 F       1  UNL1       -0.1659
     26 F          62.7844   79.9146   14.4358 F       1  UNL1       -0.1659
     27 F          62.5808   78.9606   11.5989 F       1  UNL1       -0.1659
     28 C          63.9025   92.3974   11.9618 C.3     1  UNL1        0.1931
     29 N          64.9708   92.4995   13.0099 N.ar    1  UNL1       -0.3027
     30 C          66.1100   93.4583   12.8287 C.ar    1  UNL1        0.0445
     31 C          66.1811   94.3150   11.5996 C.3     1  UNL1        0.0502
     32 C          67.1783   93.5604   13.8768 C.ar    1  UNL1        0.0753
     33 C          67.1072   92.7036   15.1061 C.ar    1  UNL1        0.2821
     34 O          68.1754   92.8057   16.1542 O.2     1  UNL1       -0.2651
     35 N          65.9680   91.7448   15.2872 N.ar    1  UNL1       -0.1844
     36 C          64.8998   91.6428   14.2391 C.ar    1  UNL1        0.1748
     37 S          63.7605   90.6840   14.4202 S.3     1  UNL1       -0.0724
     38 C          63.5739   89.9800   15.7316 C.3     1  UNL1        0.0913
     39 C          63.6773   88.4853   15.8018 C.ar    1  UNL1       -0.0108
     40 C          62.9629   87.7342   16.8860 C.ar    1  UNL1       -0.0011
     41 C          63.0663   86.2394   16.9563 C.ar    1  UNL1        0.0293
     42 C          63.8841   85.4957   15.9423 C.ar    1  UNL1        0.1401
     43 F          63.9875   84.0010   16.0125 F       1  UNL1       -0.2042
     44 C          64.5985   86.2468   14.8581 C.ar    1  UNL1        0.0293
     45 C          64.4951   87.7416   14.7879 C.ar    1  UNL1       -0.0011
@<TRIPOS>BOND
     1     7     8    1
     2     8     6    1
     3     6     9    1
     4     9    10    1
     5     6     5    1
     6     5     4    1
     7     4     1    1
     8     1    11    1
     9    11    12    1
    10    12    13   ar
    11    13    14   ar
    12    14    15   ar
    13    15    18    1
    14    18    19   ar
    15    19    20   ar
    16    20    21   ar
    17    21    24    1
    18    24    25    1
    19    24    26    1
    20    24    27    1
    21    21    22   ar
    22    22    23   ar
    23    15    16   ar
    24    16    17   ar
    25     1     2   am
    26     2     3    2
    27     2    28    1
    28    28    29    1
    29    29    30   ar
    30    30    31    1
    31    30    32   ar
    32    32    33   ar
    33    33    34    2
    34    33    35   ar
    35    35    36   ar
    36    36    37    1
    37    37    38    1
    38    38    39    1
    39    39    40   ar
    40    40    41   ar
    41    41    42   ar
    42    42    43    1
    43    42    44   ar
    44    44    45   ar
    45    17    12   ar
    46    36    29   ar
    47    45    39   ar
    48    23    18   ar
@<TRIPOS>MOLECULE
*****
 45 48 0 0 0
SMALL
GASTEIGER

@<TRIPOS>ATOM
      1 N          61.0627   88.6668   10.7830 N.am    1  UNL1       -0.2724
      2 C          61.9220   87.6536   11.4794 C.2     1  UNL1        0.2491
      3 O          63.2397   88.0643   12.0666 O.2     1  UNL1       -0.2727
      4 C          59.7449   88.2560   10.1958 C.3     1  UNL1        0.1111
      5 C          59.2282   88.9369    8.9632 C.3     1  UNL1        0.0939
      6 N          59.2361   88.2150    7.6484 N.3     1  UNL1       -0.2712
      7 C          59.9691   85.7552    7.2454 C.3     1  UNL1        0.0188
      8 C          58.9046   86.7531    7.5935 C.3     1  UNL1        0.0722
      9 C          59.5754   88.9549    6.3885 C.3     1  UNL1        0.0722
     10 C          58.8208   90.1987    6.0229 C.3     1  UNL1        0.0188
     11 C          61.5212   90.0908   10.6738 C.3     1  UNL1        0.1202
     12 C          62.6747   90.5731   11.5027 C.ar    1  UNL1       -0.0023
     13 C          63.8260   91.2773   10.8481 C.ar    1  UNL1       -0.0026
     14 C          64.9793   91.7596   11.6770 C.ar    1  UNL1       -0.0003
     15 C          64.9815   91.5375   13.1605 C.ar    1  UNL1       -0.0000
     16 C          63.8302   90.8332   13.8150 C.ar    1  UNL1       -0.0003
     17 C          62.6768   90.3510   12.9861 C.ar    1  UNL1       -0.0026
     18 C          66.1349   92.0197   13.9894 C.ar    1  UNL1       -0.0000
     19 C          65.9003   92.5119   15.3867 C.ar    1  UNL1       -0.0001
     20 C          67.0538   92.9941   16.2157 C.ar    1  UNL1        0.0039
     21 C          68.4418   92.9842   15.6471 C.ar    1  UNL1        0.0714
     22 C          68.6764   92.4920   14.2496 C.ar    1  UNL1        0.0039
     23 C          67.5230   92.0098   13.4208 C.ar    1  UNL1       -0.0001
     24 C          69.5953   93.4664   16.4759 C.3     1  UNL1        0.4186
     25 F          70.7487   93.9486   17.3047 F       1  UNL1       -0.1659
     26 F          69.2226   94.8864   16.1684 F       1  UNL1       -0.1659
     27 F          69.9680   92.0464   16.7835 F       1  UNL1       -0.1659
     28 C          61.4634   86.2295   11.5886 C.3     1  UNL1        0.1931
     29 N          62.3527   85.1170   11.1179 N.ar    1  UNL1       -0.3027
     30 C          62.8354   85.0925    9.6979 C.ar    1  UNL1        0.0445
     31 C          62.4288   86.1804    8.7486 C.3     1  UNL1        0.0502
     32 C          63.7247   83.9801    9.2271 C.ar    1  UNL1        0.0753
     33 C          64.1313   82.8921   10.1765 C.ar    1  UNL1        0.2821
     34 O          65.0206   81.7797    9.7057 O.2     1  UNL1       -0.2651
     35 N          63.6487   82.9167   11.5964 N.ar    1  UNL1       -0.1844
     36 C          62.7594   84.0292   12.0672 C.ar    1  UNL1        0.1748
     37 S          62.2767   84.0537   13.4871 S.3     1  UNL1       -0.0724
     38 C          63.2548   84.2427   14.6086 C.3     1  UNL1        0.0913
     39 C          63.2811   85.5341   15.3712 C.ar    1  UNL1       -0.0108
     40 C          64.0265   86.7142   14.8221 C.ar    1  UNL1       -0.0011
     41 C          64.0529   88.0057   15.5847 C.ar    1  UNL1        0.0293
     42 C          63.3338   88.1169   16.8964 C.ar    1  UNL1        0.1401
     43 F          63.3601   89.4083   17.6590 F       1  UNL1       -0.2042
     44 C          62.5884   86.9367   17.4455 C.ar    1  UNL1        0.0293
     45 C          62.5621   85.6453   16.6829 C.ar    1  UNL1       -0.0011
@<TRIPOS>BOND
     1     7     8    1
     2     8     6    1
     3     6     9    1
     4     9    10    1
     5     6     5    1
     6     5     4    1
     7     4     1    1
     8     1    11    1
     9    11    12    1
    10    12    13   ar
    11    13    14   ar
    12    14    15   ar
    13    15    18    1
    14    18    19   ar
    15    19    20   ar
    16    20    21   ar
    17    21    24    1
    18    24    25    1
    19    24    26    1
    20    24    27    1
    21    21    22   ar
    22    22    23   ar
    23    15    16   ar
    24    16    17   ar
    25     1     2   am
    26     2     3    2
    27     2    28    1
    28    28    29    1
    29    29    30   ar
    30    30    31    1
    31    30    32   ar
    32    32    33   ar
    33    33    34    2
    34    33    35   ar
    35    35    36   ar
    36    36    37    1
    37    37    38    1
    38    38    39    1
    39    39    40   ar
    40    40    41   ar
    41    41    42   ar
    42    42    43    1
    43    42    44   ar
    44    44    45   ar
    45    17    12   ar
    46    36    29   ar
    47    45    39   ar
    48    23    18   ar
@<TRIPOS>MOLECULE
*****
 45 48 0 0 0
SMALL
GASTEIGER

@<TRIPOS>ATOM
      1 N          63.7708   89.5402   14.8798 N.am    1  UNL1       -0.2724
      2 C          64.7695   90.5885   14.4878 C.2     1  UNL1        0.2491
      3 O          66.2311   90.3630   14.7384 O.2     1  UNL1       -0.2727
      4 C          62.3091   89.7658   14.6291 C.3     1  UNL1        0.1111
      5 C          61.7560   89.6273   13.2417 C.3     1  UNL1        0.0939
      6 N          60.2768   89.4900   13.0344 N.3     1  UNL1       -0.2712
      7 C          58.9664   91.1981   11.5798 C.3     1  UNL1        0.0188
      8 C          59.6643   89.8779   11.7211 C.3     1  UNL1        0.0722
      9 C          59.4099   88.9650   14.1402 C.3     1  UNL1        0.0722
     10 C          58.0305   88.4599   13.8364 C.3     1  UNL1        0.0188
     11 C          64.2336   88.2664   15.5225 C.3     1  UNL1        0.1202
     12 C          64.0170   86.9544   14.8284 C.ar    1  UNL1       -0.0023
     13 C          64.1375   85.6711   15.5957 C.ar    1  UNL1       -0.0026
     14 C          63.9209   84.3592   14.9017 C.ar    1  UNL1       -0.0003
     15 C          63.5838   84.3304   13.4403 C.ar    1  UNL1       -0.0000
     16 C          63.4633   85.6136   12.6730 C.ar    1  UNL1       -0.0003
     17 C          63.6800   86.9256   13.3671 C.ar    1  UNL1       -0.0026
     18 C          63.3672   83.0183   12.7463 C.ar    1  UNL1       -0.0000
     19 C          62.9360   81.8161   13.5327 C.ar    1  UNL1       -0.0001
     20 C          62.7194   80.5040   12.8387 C.ar    1  UNL1        0.0039
     21 C          62.9340   80.3943   11.3582 C.ar    1  UNL1        0.0714
     22 C          63.3652   81.5967   10.5717 C.ar    1  UNL1        0.0039
     23 C          63.5818   82.9086   11.2657 C.ar    1  UNL1       -0.0001
     24 C          62.7174   79.0823   10.6641 C.3     1  UNL1        0.4186
     25 F          62.5008   77.7703    9.9700 F       1  UNL1       -0.1659
     26 F          62.4178   78.4340   11.9831 F       1  UNL1       -0.1659
     27 F          63.0170   79.7306    9.3451 F       1  UNL1       -0.1659
     28 C          64.3065   91.8624   13.8450 C.3     1  UNL1        0.1931
     29 N          65.0064   92.3845   12.6254 N.ar    1  UNL1       -0.3027
     30 C          66.1217   93.3774   12.7680 C.ar    1  UNL1        0.0445
     31 C          66.5372   93.8482   14.1302 C.3     1  UNL1        0.0502
     32 C          66.8216   93.8995   11.5483 C.ar    1  UNL1        0.0753
     33 C          66.4061   93.4287   10.1860 C.ar    1  UNL1        0.2821
     34 O          67.1059   93.9508    8.9663 O.2     1  UNL1       -0.2651
     35 N          65.2908   92.4358   10.0434 N.ar    1  UNL1       -0.1844
     36 C          64.5910   91.9137   11.2631 C.ar    1  UNL1        0.1748
     37 S          63.4757   90.9209   11.1206 S.3     1  UNL1       -0.0724
     38 C          62.6884   90.8552    9.8454 C.3     1  UNL1        0.0913
     39 C          61.9472   89.6019    9.4853 C.ar    1  UNL1       -0.0108
     40 C          62.4618   88.2689    9.9417 C.ar    1  UNL1       -0.0011
     41 C          61.7206   87.0155    9.5816 C.ar    1  UNL1        0.0293
     42 C          60.4647   87.0952    8.7651 C.ar    1  UNL1        0.1401
     43 F          59.7235   85.8418    8.4050 F       1  UNL1       -0.2042
     44 C          59.9501   88.4282    8.3088 C.ar    1  UNL1        0.0293
     45 C          60.6914   89.6816    8.6689 C.ar    1  UNL1       -0.0011
@<TRIPOS>BOND
     1     7     8    1
     2     8     6    1
     3     6     9    1
     4     9    10    1
     5     6     5    1
     6     5     4    1
     7     4     1    1
     8     1    11    1
     9    11    12    1
    10    12    13   ar
    11    13    14   ar
    12    14    15   ar
    13    15    18    1
    14    18    19   ar
    15    19    20   ar
    16    20    21   ar
    17    21    24    1
    18    24    25    1
    19    24    26    1
    20    24    27    1
    21    21    22   ar
    22    22    23   ar
    23    15    16   ar
    24    16    17   ar
    25     1     2   am
    26     2     3    2
    27     2    28    1
    28    28    29    1
    29    29    30   ar
    30    30    31    1
    31    30    32   ar
    32    32    33   ar
    33    33    34    2
    34    33    35   ar
    35    35    36   ar
    36    36    37    1
    37    37    38    1
    38    38    39    1
    39    39    40   ar
    40    40    41   ar
    41    41    42   ar
    42    42    43    1
    43    42    44   ar
    44    44    45   ar
    45    17    12   ar
    46    36    29   ar
    47    45    39   ar
    48    23    18   ar
@<TRIPOS>MOLECULE
*****
 45 48 0 0 0
SMALL
GASTEIGER

@<TRIPOS>ATOM
      1 N          59.9479   88.5864    7.8723 N.am    1  UNL1       -0.2724
      2 C          60.5467   88.9384    9.2018 C.2     1  UNL1        0.2491
      3 O          60.0073   90.0993    9.9836 O.2     1  UNL1       -0.2727
      4 C          60.4874   87.4254    7.0905 C.3     1  UNL1        0.1111
      5 C          60.2801   86.0254    7.5874 C.3     1  UNL1        0.0939
      6 N          61.2811   84.9574    7.2596 N.3     1  UNL1       -0.2712
      7 C          63.5454   85.6208    8.3472 C.3     1  UNL1        0.0188
      8 C          62.4007   84.6609    8.2128 C.3     1  UNL1        0.0722
      9 C          61.1624   84.1859    5.9787 C.3     1  UNL1        0.0722
     10 C          62.2801   84.2160    4.9788 C.3     1  UNL1        0.0188
     11 C          58.8096   89.3952    7.3247 C.3     1  UNL1        0.1202
     12 C          59.0314   90.3046    6.1524 C.ar    1  UNL1       -0.0023
     13 C          60.4212   90.5446    5.6419 C.ar    1  UNL1       -0.0026
     14 C          60.6429   91.4539    4.4697 C.ar    1  UNL1       -0.0003
     15 C          59.4748   92.1231    3.8081 C.ar    1  UNL1       -0.0000
     16 C          58.0850   91.8830    4.3187 C.ar    1  UNL1       -0.0003
     17 C          57.8633   90.9737    5.4908 C.ar    1  UNL1       -0.0026
     18 C          59.6966   93.0324    2.6359 C.ar    1  UNL1       -0.0000
     19 C          60.3905   94.3482    2.8281 C.ar    1  UNL1       -0.0001
     20 C          60.6122   95.2576    1.6559 C.ar    1  UNL1        0.0039
     21 C          60.1401   94.8509    0.2914 C.ar    1  UNL1        0.0714
     22 C          59.4462   93.5350    0.0992 C.ar    1  UNL1        0.0039
     23 C          59.2244   92.6258    1.2714 C.ar    1  UNL1       -0.0001
     24 C          60.3618   95.7602   -0.8808 C.3     1  UNL1        0.4186
     25 F          60.5836   96.6694   -2.0530 F       1  UNL1       -0.1659
     26 F          59.5728   94.8287   -1.7525 F       1  UNL1       -0.1659
     27 F          61.1508   96.6916   -0.0091 F       1  UNL1       -0.1659
     28 C          61.6851   88.1294    9.7494 C.3     1  UNL1        0.1931
     29 N          62.4555   88.6265   10.9366 N.ar    1  UNL1       -0.3027
     30 C          62.8739   90.0652   11.0103 C.ar    1  UNL1        0.0445
     31 C          62.5218   91.0066    9.8969 C.3     1  UNL1        0.0502
     32 C          63.6443   90.5623   12.1974 C.ar    1  UNL1        0.0753
     33 C          63.9964   89.6208   13.3108 C.ar    1  UNL1        0.2821
     34 O          64.7668   90.1179   14.4980 O.2     1  UNL1       -0.2651
     35 N          63.5780   88.1822   13.2371 N.ar    1  UNL1       -0.1844
     36 C          62.8076   87.6851   12.0500 C.ar    1  UNL1        0.1748
     37 S          62.3892   86.2466   11.9762 S.3     1  UNL1       -0.0724
     38 C          62.9716   85.2462   12.9303 C.3     1  UNL1        0.0913
     39 C          62.8980   83.7810   12.6181 C.ar    1  UNL1       -0.0108
     40 C          62.3484   82.8243   13.6343 C.ar    1  UNL1       -0.0011
     41 C          62.2747   81.3590   13.3221 C.ar    1  UNL1        0.0293
     42 C          62.7508   80.8503   11.9937 C.ar    1  UNL1        0.1401
     43 F          62.6772   79.3851   11.6815 F       1  UNL1       -0.2042
     44 C          63.3005   81.8070   10.9775 C.ar    1  UNL1        0.0293
     45 C          63.3741   83.2723   11.2897 C.ar    1  UNL1       -0.0011
@<TRIPOS>BOND
     1     7     8    1
     2     8     6    1
     3     6     9    1
     4     9    10    1
     5     6     5    1
     6     5     4    1
     7     4     1    1
     8     1    11    1
     9    11    12    1
    10    12    13   ar
    11    13    14   ar
    12    14    15   ar
    13    15    18    1
    14    18    19   ar
    15    19    20   ar
    16    20    21   ar
    17    21    24    1
    18    24    25    1
    19    24    26    1
    20    24    27    1
    21    21    22   ar
    22    22    23   ar
    23    15    16   ar
    24    16    17   ar
    25     1     2   am
    26     2     3    2
    27     2    28    1
    28    28    29    1
    29    29    30   ar
    30    30    31    1
    31    30    32   ar
    32    32    33   ar
    33    33    34    2
    34    33    35   ar
    35    35    36   ar
    36    36    37    1
    37    37    38    1
    38    38    39    1
    39    39    40   ar
    40    40    41   ar
    41    41    42   ar
    42    42    43    1
    43    42    44   ar
    44    44    45   ar
    45    17    12   ar
    46    36    29   ar
    47    45    39   ar
    48    23    18   ar
@<TRIPOS>MOLECULE
*****
 45 48 0 0 0
SMALL
GASTEIGER

@<TRIPOS>ATOM
      1 N          61.8101   87.5944   11.4487 N.am    1  UNL1       -0.2724
      2 C          62.1857   88.7337   12.3492 C.2     1  UNL1        0.2491
      3 O          61.2526   89.8962   12.5169 O.2     1  UNL1       -0.2727
      4 C          62.7432   86.4319   11.2811 C.3     1  UNL1        0.1111
      5 C          62.3877   85.0952   11.8613 C.3     1  UNL1        0.0939
      6 N          63.4013   84.3309   12.6603 N.3     1  UNL1       -0.2712
      7 C          64.0833   83.0076   10.5310 C.3     1  UNL1        0.0188
      8 C          64.2643   83.3030   11.9905 C.3     1  UNL1        0.0722
      9 C          63.5520   84.5945   14.1293 C.3     1  UNL1        0.0722
     10 C          64.8912   84.9711   14.6902 C.3     1  UNL1        0.0188
     11 C          60.5016   87.6176   10.7158 C.3     1  UNL1        0.1202
     12 C          60.3641   88.4129    9.4514 C.ar    1  UNL1       -0.0023
     13 C          59.4702   87.9232    8.3509 C.ar    1  UNL1       -0.0026
     14 C          59.3327   88.7185    7.0866 C.ar    1  UNL1       -0.0003
     15 C          60.0891   90.0035    6.9228 C.ar    1  UNL1       -0.0000
     16 C          60.9829   90.4932    8.0234 C.ar    1  UNL1       -0.0003
     17 C          61.1204   89.6978    9.2877 C.ar    1  UNL1       -0.0026
     18 C          59.9515   90.7988    5.6584 C.ar    1  UNL1       -0.0000
     19 C          61.1574   91.0715    4.8090 C.ar    1  UNL1       -0.0001
     20 C          61.0198   91.8668    3.5446 C.ar    1  UNL1        0.0039
     21 C          59.6764   92.3894    3.1297 C.ar    1  UNL1        0.0714
     22 C          58.4705   92.1167    3.9792 C.ar    1  UNL1        0.0039
     23 C          58.6081   91.3214    5.2435 C.ar    1  UNL1       -0.0001
     24 C          59.5388   93.1847    1.8654 C.3     1  UNL1        0.4186
     25 F          59.4013   93.9800    0.6011 F       1  UNL1       -0.1659
     26 F          59.1656   91.9370    1.1212 F       1  UNL1       -0.1659
     27 F          59.9121   94.4324    2.6096 F       1  UNL1       -0.1659
     28 C          63.4943   88.7106   13.0821 C.3     1  UNL1        0.1931
     29 N          63.7598   89.7037   14.1745 N.ar    1  UNL1       -0.3027
     30 C          63.4534   89.3507   15.5998 C.ar    1  UNL1        0.0445
     31 C          62.8816   88.0046   15.9328 C.3     1  UNL1        0.0502
     32 C          63.7190   90.3439   16.6921 C.ar    1  UNL1        0.0753
     33 C          64.2908   91.6900   16.3591 C.ar    1  UNL1        0.2821
     34 O          64.5564   92.6832   17.4514 O.2     1  UNL1       -0.2651
     35 N          64.5972   92.0430   14.9338 N.ar    1  UNL1       -0.1844
     36 C          64.3316   91.0498   13.8414 C.ar    1  UNL1        0.1748
     37 S          64.6379   91.4028   12.4161 S.3     1  UNL1       -0.0724
     38 C          66.0618   91.5660   11.9732 C.3     1  UNL1        0.0913
     39 C          66.4665   92.7720   11.1786 C.ar    1  UNL1       -0.0108
     40 C          65.8414   94.1046   11.4671 C.ar    1  UNL1       -0.0011
     41 C          66.2461   95.3108   10.6725 C.ar    1  UNL1        0.0293
     42 C          67.2760   95.1843    9.5893 C.ar    1  UNL1        0.1401
     43 F          67.6807   96.3904    8.7946 F       1  UNL1       -0.2042
     44 C          67.9011   93.8516    9.3007 C.ar    1  UNL1        0.0293
     45 C          67.4964   92.6455   10.0954 C.ar    1  UNL1       -0.0011
@<TRIPOS>BOND
     1     7     8    1
     2     8     6    1
     3     6     9    1
     4     9    10    1
     5     6     5    1
     6     5     4    1
     7     4     1    1
     8     1    11    1
     9    11    12    1
    10    12    13   ar
    11    13    14   ar
    12    14    15   ar
    13    15    18    1
    14    18    19   ar
    15    19    20   ar
    16    20    21   ar
    17    21    24    1
    18    24    25    1
    19    24    26    1
    20    24    27    1
    21    21    22   ar
    22    22    23   ar
    23    15    16   ar
    24    16    17   ar
    25     1     2   am
    26     2     3    2
    27     2    28    1
    28    28    29    1
    29    29    30   ar
    30    30    31    1
    31    30    32   ar
    32    32    33   ar
    33    33    34    2
    34    33    35   ar
    35    35    36   ar
    36    36    37    1
    37    37    38    1
    38    38    39    1
    39    39    40   ar
    40    40    41   ar
    41    41    42   ar
    42    42    43    1
    43    42    44   ar
    44    44    45   ar
    45    17    12   ar
    46    36    29   ar
    47    45    39   ar
    48    23    18   ar
@<TRIPOS>MOLECULE
*****
 45 48 0 0 0
SMALL
GASTEIGER

@<TRIPOS>ATOM
      1 N          61.8837   87.6575   11.5551 N.am    1  UNL1       -0.2724
      2 C          62.3302   88.8776   12.3047 C.2     1  UNL1        0.2491
      3 O          61.4682   90.1050   12.3211 O.2     1  UNL1       -0.2727
      4 C          62.7459   86.4300   11.5387 C.3     1  UNL1        0.1111
      5 C          62.2833   85.1982   10.8185 C.3     1  UNL1        0.0939
      6 N          63.0960   84.6409    9.6877 N.3     1  UNL1       -0.2712
      7 C          64.3891   83.0601   11.2937 C.3     1  UNL1        0.0188
      8 C          63.9551   83.4309    9.9066 C.3     1  UNL1        0.0722
      9 C          63.0497   85.2936    8.3379 C.3     1  UNL1        0.0722
     10 C          61.7625   85.3357    7.5690 C.3     1  UNL1        0.0188
     11 C          60.5752   87.6648   10.8219 C.3     1  UNL1        0.1202
     12 C          60.4322   88.4478    9.5504 C.ar    1  UNL1       -0.0023
     13 C          61.2574   89.6812    9.3323 C.ar    1  UNL1       -0.0026
     14 C          61.1144   90.4641    8.0609 C.ar    1  UNL1       -0.0003
     15 C          60.1462   90.0136    7.0076 C.ar    1  UNL1       -0.0000
     16 C          59.3210   88.7802    7.2256 C.ar    1  UNL1       -0.0003
     17 C          59.4640   87.9972    8.4971 C.ar    1  UNL1       -0.0026
     18 C          60.0032   90.7966    5.7361 C.ar    1  UNL1       -0.0000
     19 C          58.6552   91.3002    5.3130 C.ar    1  UNL1       -0.0001
     20 C          58.5122   92.0832    4.0415 C.ar    1  UNL1        0.0039
     21 C          59.7173   92.3625    3.1932 C.ar    1  UNL1        0.0714
     22 C          61.0654   91.8589    3.6164 C.ar    1  UNL1        0.0039
     23 C          61.2084   91.0759    4.8878 C.ar    1  UNL1       -0.0001
     24 C          59.5744   93.1454    1.9218 C.3     1  UNL1        0.4186
     25 F          59.4315   93.9284    0.6504 F       1  UNL1       -0.1659
     26 F          59.9145   94.4062    2.6599 F       1  UNL1       -0.1659
     27 F          59.2343   91.8847    1.1837 F       1  UNL1       -0.1659
     28 C          63.6389   88.8703   13.0379 C.3     1  UNL1        0.1931
     29 N          63.8785   89.8431   14.1543 N.ar    1  UNL1       -0.3027
     30 C          63.4481   89.5033   15.5505 C.ar    1  UNL1        0.0445
     31 C          62.7781   88.1908   15.8303 C.3     1  UNL1        0.0502
     32 C          63.6877   90.4761   16.6668 C.ar    1  UNL1        0.0753
     33 C          64.3578   91.7887   16.3870 C.ar    1  UNL1        0.2821
     34 O          64.5974   92.7615   17.5033 O.2     1  UNL1       -0.2651
     35 N          64.7882   92.1284   14.9908 N.ar    1  UNL1       -0.1844
     36 C          64.5485   91.1556   13.8745 C.ar    1  UNL1        0.1748
     37 S          64.9789   91.4953   12.4783 S.3     1  UNL1       -0.0724
     38 C          66.4039   91.8754   12.2042 C.3     1  UNL1        0.0913
     39 C          66.7149   92.9452   11.1999 C.ar    1  UNL1       -0.0108
     40 C          66.1989   94.3387   11.4045 C.ar    1  UNL1       -0.0011
     41 C          66.5099   95.4086   10.4001 C.ar    1  UNL1        0.0293
     42 C          67.3369   95.0850    9.1913 C.ar    1  UNL1        0.1401
     43 F          67.6479   96.1548    8.1870 F       1  UNL1       -0.2042
     44 C          67.8528   93.6914    8.9867 C.ar    1  UNL1        0.0293
     45 C          67.5418   92.6215    9.9910 C.ar    1  UNL1       -0.0011
@<TRIPOS>BOND
     1     7     8    1
     2     8     6    1
     3     6     9    1
     4     9    10    1
     5     6     5    1
     6     5     4    1
     7     4     1    1
     8     1    11    1
     9    11    12    1
    10    12    13   ar
    11    13    14   ar
    12    14    15   ar
    13    15    18    1
    14    18    19   ar
    15    19    20   ar
    16    20    21   ar
    17    21    24    1
    18    24    25    1
    19    24    26    1
    20    24    27    1
    21    21    22   ar
    22    22    23   ar
    23    15    16   ar
    24    16    17   ar
    25     1     2   am
    26     2     3    2
    27     2    28    1
    28    28    29    1
    29    29    30   ar
    30    30    31    1
    31    30    32   ar
    32    32    33   ar
    33    33    34    2
    34    33    35   ar
    35    35    36   ar
    36    36    37    1
    37    37    38    1
    38    38    39    1
    39    39    40   ar
    40    40    41   ar
    41    41    42   ar
    42    42    43    1
    43    42    44   ar
    44    44    45   ar
    45    17    12   ar
    46    36    29   ar
    47    45    39   ar
    48    23    18   ar
@<TRIPOS>MOLECULE
*****
 45 48 0 0 0
SMALL
GASTEIGER

@<TRIPOS>ATOM
      1 N          61.1519   86.4248   10.8270 N.am    1  UNL1       -0.2724
      2 C          62.0799   85.3307   10.3891 C.2     1  UNL1        0.2491
      3 O          61.7419   84.4961    9.1894 O.2     1  UNL1       -0.2727
      4 C          61.4900   87.2594   12.0268 C.3     1  UNL1        0.1111
      5 C          62.3493   88.4793   11.8738 C.3     1  UNL1        0.0939
      6 N          61.7366   89.8451   11.9697 N.3     1  UNL1       -0.2712
      7 C          59.3758   90.8230   11.5004 C.3     1  UNL1        0.0188
      8 C          60.2933   89.9946   12.3501 C.3     1  UNL1        0.0722
      9 C          62.5672   91.0613   11.6853 C.3     1  UNL1        0.0722
     10 C          63.1846   91.2479   10.3309 C.3     1  UNL1        0.0188
     11 C          59.8861   86.6844   10.0654 C.3     1  UNL1        0.1202
     12 C          59.8810   87.6665    8.9315 C.ar    1  UNL1       -0.0023
     13 C          59.1226   87.3573    7.6749 C.ar    1  UNL1       -0.0026
     14 C          59.1176   88.3394    6.5411 C.ar    1  UNL1       -0.0003
     15 C          59.8708   89.6307    6.6641 C.ar    1  UNL1       -0.0000
     16 C          60.6291   89.9399    7.9207 C.ar    1  UNL1       -0.0003
     17 C          60.6342   88.9578    9.0545 C.ar    1  UNL1       -0.0026
     18 C          59.8657   90.6128    5.5302 C.ar    1  UNL1       -0.0000
     19 C          61.1447   90.9466    4.8213 C.ar    1  UNL1       -0.0001
     20 C          61.1396   91.9287    3.6875 C.ar    1  UNL1        0.0039
     21 C          59.8554   92.5770    3.2626 C.ar    1  UNL1        0.0714
     22 C          58.5763   92.2432    3.9716 C.ar    1  UNL1        0.0039
     23 C          58.5814   91.2611    5.1054 C.ar    1  UNL1       -0.0001
     24 C          59.8502   93.5591    2.1289 C.3     1  UNL1        0.4186
     25 F          59.8450   94.5411    0.9951 F       1  UNL1       -0.1659
     26 F          60.1686   94.6677    3.0877 F       1  UNL1       -0.1659
     27 F          59.5317   92.4504    1.1700 F       1  UNL1       -0.1659
     28 C          63.3458   85.0711   11.1508 C.3     1  UNL1        0.1931
     29 N          63.4865   83.8211   11.9679 N.ar    1  UNL1       -0.3027
     30 C          63.8199   82.5209   11.2983 C.ar    1  UNL1        0.0445
     31 C          64.0127   82.4708    9.8116 C.3     1  UNL1        0.0502
     32 C          63.9606   81.2709   12.1154 C.ar    1  UNL1        0.0753
     33 C          63.7679   81.3211   13.6022 C.ar    1  UNL1        0.2821
     34 O          63.9086   80.0711   14.4193 O.2     1  UNL1       -0.2651
     35 N          63.4344   82.6213   14.2718 N.ar    1  UNL1       -0.1844
     36 C          63.2937   83.8713   13.4546 C.ar    1  UNL1        0.1748
     37 S          62.9602   85.1714   14.1242 S.3     1  UNL1       -0.0724
     38 C          63.9254   85.7842   15.0953 C.3     1  UNL1        0.0913
     39 C          63.8564   87.2520   15.3963 C.ar    1  UNL1       -0.0108
     40 C          64.4533   88.2423   14.4409 C.ar    1  UNL1       -0.0011
     41 C          64.3842   89.7103   14.7418 C.ar    1  UNL1        0.0293
     42 C          63.7183   90.1878   15.9982 C.ar    1  UNL1        0.1401
     43 F          63.6493   91.6556   16.2992 F       1  UNL1       -0.2042
     44 C          63.1214   89.1973   16.9537 C.ar    1  UNL1        0.0293
     45 C          63.1905   87.7295   16.6527 C.ar    1  UNL1       -0.0011
@<TRIPOS>BOND
     1     7     8    1
     2     8     6    1
     3     6     9    1
     4     9    10    1
     5     6     5    1
     6     5     4    1
     7     4     1    1
     8     1    11    1
     9    11    12    1
    10    12    13   ar
    11    13    14   ar
    12    14    15   ar
    13    15    18    1
    14    18    19   ar
    15    19    20   ar
    16    20    21   ar
    17    21    24    1
    18    24    25    1
    19    24    26    1
    20    24    27    1
    21    21    22   ar
    22    22    23   ar
    23    15    16   ar
    24    16    17   ar
    25     1     2   am
    26     2     3    2
    27     2    28    1
    28    28    29    1
    29    29    30   ar
    30    30    31    1
    31    30    32   ar
    32    32    33   ar
    33    33    34    2
    34    33    35   ar
    35    35    36   ar
    36    36    37    1
    37    37    38    1
    38    38    39    1
    39    39    40   ar
    40    40    41   ar
    41    41    42   ar
    42    42    43    1
    43    42    44   ar
    44    44    45   ar
    45    17    12   ar
    46    36    29   ar
    47    45    39   ar
    48    23    18   ar
@<TRIPOS>MOLECULE
*****
 45 48 0 0 0
SMALL
GASTEIGER

@<TRIPOS>ATOM
      1 N          64.2796   89.2859   14.8789 N.am    1  UNL1       -0.2724
      2 C          65.1163   90.4657   14.4816 C.2     1  UNL1        0.2491
      3 O          66.6127   90.3749   14.5317 O.2     1  UNL1       -0.2727
      4 C          62.7832   89.3767   14.8287 C.3     1  UNL1        0.1111
      5 C          61.9756   89.1432   16.0710 C.3     1  UNL1        0.0939
      6 N          62.1124   87.8526   16.8229 N.3     1  UNL1       -0.2712
      7 C          61.8934   85.2971   16.4084 C.3     1  UNL1        0.0188
      8 C          61.2810   86.6662   16.4340 C.3     1  UNL1        0.0722
      9 C          63.0807   87.7483   17.9638 C.3     1  UNL1        0.0722
     10 C          62.6995   86.9965   19.2046 C.3     1  UNL1        0.0188
     11 C          64.9393   88.0152   15.3264 C.3     1  UNL1        0.1202
     12 C          64.6118   86.7197   14.6447 C.ar    1  UNL1       -0.0023
     13 C          63.6347   86.6970   13.5069 C.ar    1  UNL1       -0.0026
     14 C          63.3073   85.4016   12.8253 C.ar    1  UNL1       -0.0003
     15 C          63.9570   84.1289   13.2816 C.ar    1  UNL1       -0.0000
     16 C          64.9340   84.1516   14.4195 C.ar    1  UNL1       -0.0003
     17 C          65.2615   85.4470   15.1010 C.ar    1  UNL1       -0.0026
     18 C          63.6295   82.8334   12.6000 C.ar    1  UNL1       -0.0000
     19 C          63.0470   81.6976   13.3878 C.ar    1  UNL1       -0.0001
     20 C          62.7196   80.4021   12.7062 C.ar    1  UNL1        0.0039
     21 C          62.9745   80.2425   11.2367 C.ar    1  UNL1        0.0714
     22 C          63.5570   81.3783   10.4488 C.ar    1  UNL1        0.0039
     23 C          63.8845   82.6737   11.1304 C.ar    1  UNL1       -0.0001
     24 C          62.6471   78.9471   10.5550 C.3     1  UNL1        0.4186
     25 F          62.3197   77.6517    9.8734 F       1  UNL1       -0.1659
     26 F          62.4624   78.2908   11.8911 F       1  UNL1       -0.1659
     27 F          62.8318   79.6034    9.2190 F       1  UNL1       -0.1659
     28 C          64.4566   91.7364   14.0341 C.3     1  UNL1        0.1931
     29 N          64.9395   92.4376   12.7991 N.ar    1  UNL1       -0.3027
     30 C          66.0890   93.3977   12.8828 C.ar    1  UNL1        0.0445
     31 C          66.7555   93.6566   14.2014 C.3     1  UNL1        0.0502
     32 C          66.5719   94.0989   11.6479 C.ar    1  UNL1        0.0753
     33 C          65.9054   93.8400   10.3292 C.ar    1  UNL1        0.2821
     34 O          66.3883   94.5412    9.0943 O.2     1  UNL1       -0.2651
     35 N          64.7560   92.8799   10.2456 N.ar    1  UNL1       -0.1844
     36 C          64.2730   92.1787   11.4805 C.ar    1  UNL1        0.1748
     37 S          63.1236   91.2186   11.3969 S.3     1  UNL1       -0.0724
     38 C          63.3621   89.7977   10.9794 C.3     1  UNL1        0.0913
     39 C          62.2983   89.0460   10.2356 C.ar    1  UNL1       -0.0108
     40 C          62.4076   87.5592   10.0696 C.ar    1  UNL1       -0.0011
     41 C          61.3438   86.8074    9.3258 C.ar    1  UNL1        0.0293
     42 C          60.1708   87.5424    8.7480 C.ar    1  UNL1        0.1401
     43 F          59.1070   86.7906    8.0042 F       1  UNL1       -0.2042
     44 C          60.0615   89.0292    8.9141 C.ar    1  UNL1        0.0293
     45 C          61.1253   89.7809    9.6578 C.ar    1  UNL1       -0.0011
@<TRIPOS>BOND
     1     7     8    1
     2     8     6    1
     3     6     9    1
     4     9    10    1
     5     6     5    1
     6     5     4    1
     7     4     1    1
     8     1    11    1
     9    11    12    1
    10    12    13   ar
    11    13    14   ar
    12    14    15   ar
    13    15    18    1
    14    18    19   ar
    15    19    20   ar
    16    20    21   ar
    17    21    24    1
    18    24    25    1
    19    24    26    1
    20    24    27    1
    21    21    22   ar
    22    22    23   ar
    23    15    16   ar
    24    16    17   ar
    25     1     2   am
    26     2     3    2
    27     2    28    1
    28    28    29    1
    29    29    30   ar
    30    30    31    1
    31    30    32   ar
    32    32    33   ar
    33    33    34    2
    34    33    35   ar
    35    35    36   ar
    36    36    37    1
    37    37    38    1
    38    38    39    1
    39    39    40   ar
    40    40    41   ar
    41    41    42   ar
    42    42    43    1
    43    42    44   ar
    44    44    45   ar
    45    17    12   ar
    46    36    29   ar
    47    45    39   ar
    48    23    18   ar
@<TRIPOS>MOLECULE
*****
 45 48 0 0 0
SMALL
GASTEIGER

@<TRIPOS>ATOM
      1 N          61.1614   87.2762   10.8036 N.am    1  UNL1       -0.2724
      2 C          61.5781   88.2585   11.8578 C.2     1  UNL1        0.2491
      3 O          60.7114   89.4442   12.1627 O.2     1  UNL1       -0.2727
      4 C          62.0282   86.0905   10.4987 C.3     1  UNL1        0.1111
      5 C          62.8501   86.0650    9.2442 C.3     1  UNL1        0.0939
      6 N          63.1994   84.7548    8.6029 N.3     1  UNL1       -0.2712
      7 C          63.5266   83.0557   10.5410 C.3     1  UNL1        0.0188
      8 C          64.0608   83.7680    9.3339 C.3     1  UNL1        0.0722
      9 C          62.6873   84.4313    7.2307 C.3     1  UNL1        0.0722
     10 C          61.4374   85.0870    6.7227 C.3     1  UNL1        0.0188
     11 C          59.8780   87.4795   10.0543 C.3     1  UNL1        0.1202
     12 C          59.8519   88.3520    8.8344 C.ar    1  UNL1       -0.0023
     13 C          59.0752   87.9258    7.6240 C.ar    1  UNL1       -0.0026
     14 C          59.0491   88.7984    6.4042 C.ar    1  UNL1       -0.0003
     15 C          59.7997   90.0970    6.3947 C.ar    1  UNL1       -0.0000
     16 C          60.5764   90.5232    7.6051 C.ar    1  UNL1       -0.0003
     17 C          60.6025   89.6507    8.8249 C.ar    1  UNL1       -0.0026
     18 C          59.7735   90.9696    5.1748 C.ar    1  UNL1       -0.0000
     19 C          61.0535   91.3197    4.4756 C.ar    1  UNL1       -0.0001
     20 C          61.0274   92.1923    3.2557 C.ar    1  UNL1        0.0039
     21 C          59.7212   92.7146    2.7351 C.ar    1  UNL1        0.0714
     22 C          58.4411   92.3644    3.4344 C.ar    1  UNL1        0.0039
     23 C          58.4673   91.4919    4.6542 C.ar    1  UNL1       -0.0001
     24 C          59.6950   93.5871    1.5153 C.3     1  UNL1        0.4186
     25 F          59.6688   94.4596    0.2955 F       1  UNL1       -0.1659
     26 F          59.3485   92.3965    0.6712 F       1  UNL1       -0.1659
     27 F          60.0415   94.7776    2.3594 F       1  UNL1       -0.1659
     28 C          62.8616   88.0552   12.6071 C.3     1  UNL1        0.1931
     29 N          63.6173   89.2385   13.1351 N.ar    1  UNL1       -0.3027
     30 C          63.8433   90.4355   12.2597 C.ar    1  UNL1        0.0445
     31 C          63.3134   90.4492   10.8565 C.3     1  UNL1        0.0502
     32 C          64.5990   91.6187   12.7876 C.ar    1  UNL1        0.0753
     33 C          65.1289   91.6050   14.1909 C.ar    1  UNL1        0.2821
     34 O          65.8846   92.7882   14.7189 O.2     1  UNL1       -0.2651
     35 N          64.9029   90.4080   15.0662 N.ar    1  UNL1       -0.1844
     36 C          64.1472   89.2248   14.5383 C.ar    1  UNL1        0.1748
     37 S          63.9212   88.0278   15.4136 S.3     1  UNL1       -0.0724
     38 C          64.7838   86.8106   15.2570 C.3     1  UNL1        0.0913
     39 C          64.1526   85.4651   15.0540 C.ar    1  UNL1       -0.0108
     40 C          64.7773   84.4778   14.1133 C.ar    1  UNL1       -0.0011
     41 C          64.1461   83.1323   13.9103 C.ar    1  UNL1        0.0293
     42 C          62.8901   82.7741   14.6480 C.ar    1  UNL1        0.1401
     43 F          62.2589   81.4286   14.4450 F       1  UNL1       -0.2042
     44 C          62.2653   83.7615   15.5887 C.ar    1  UNL1        0.0293
     45 C          62.8966   85.1069   15.7917 C.ar    1  UNL1       -0.0011
@<TRIPOS>BOND
     1     7     8    1
     2     8     6    1
     3     6     9    1
     4     9    10    1
     5     6     5    1
     6     5     4    1
     7     4     1    1
     8     1    11    1
     9    11    12    1
    10    12    13   ar
    11    13    14   ar
    12    14    15   ar
    13    15    18    1
    14    18    19   ar
    15    19    20   ar
    16    20    21   ar
    17    21    24    1
    18    24    25    1
    19    24    26    1
    20    24    27    1
    21    21    22   ar
    22    22    23   ar
    23    15    16   ar
    24    16    17   ar
    25     1     2   am
    26     2     3    2
    27     2    28    1
    28    28    29    1
    29    29    30   ar
    30    30    31    1
    31    30    32   ar
    32    32    33   ar
    33    33    34    2
    34    33    35   ar
    35    35    36   ar
    36    36    37    1
    37    37    38    1
    38    38    39    1
    39    39    40   ar
    40    40    41   ar
    41    41    42   ar
    42    42    43    1
    43    42    44   ar
    44    44    45   ar
    45    17    12   ar
    46    36    29   ar
    47    45    39   ar
    48    23    18   ar
