@<TRIPOS>MOLECULE
*****
 37 40 0 0 0
SMALL
GASTEIGER

@<TRIPOS>ATOM
      1 C          62.0273   86.5223   11.4396 C.ar    1  UNL1        0.1344
      2 N          61.5563   85.6469   10.3162 N.ar    1  UNL1       -0.2396
      3 C          60.7434   86.2321    9.1997 C.ar    1  UNL1        0.0947
      4 C          60.4016   87.6926    9.2064 C.ar    1  UNL1       -0.0014
      5 C          59.5887   88.2779    8.0898 C.3     1  UNL1        0.0327
      6 C          60.8726   88.5679   10.3298 C.ar    1  UNL1        0.0148
      7 C          61.6855   87.9828   11.4464 C.ar    1  UNL1        0.0852
      8 C          62.8402   85.9370   12.5561 C.2     1  UNL1        0.2137
      9 O          63.7280   86.8212   13.3808 O.2     1  UNL1       -0.2851
     10 C          62.2149   83.9906   14.1594 C.2     1  UNL1        0.1569
     11 C          62.7653   84.4676   12.8481 C.2     1  UNL1        0.0611
     12 C          63.2407   83.4753   11.8287 C.3     1  UNL1        0.0930
     13 C          63.8270   83.6463   10.4587 C.2     1  UNL1       -0.0026
     14 C          64.1146   82.2826    9.9039 C.2     1  UNL1        0.0551
     15 N          63.7059   81.2687   10.9311 N.pl3   1  UNL1       -0.3144
     16 C          63.1658   82.0059   12.1207 C.3     1  UNL1        0.1834
     17 N          62.6155   81.5288   13.4320 N.2     1  UNL1       -0.2469
     18 C          62.1400   82.5212   14.4514 C.2     1  UNL1        0.1316
     19 H          63.7792   80.2911   10.8404 H       1  UNL1        0.1485
     20 C          62.5615   85.2512   16.4045 C.3     1  UNL1        0.2525
     21 O          61.7396   84.9830   15.1787 O.2     1  UNL1       -0.4701
     22 N          62.1565   88.8581   12.5697 N.pl3   1  UNL1       -0.2134
     23 H          61.8356   88.6977   13.4865 H       1  UNL1        0.1738
     24 S          63.1164   89.9778   12.2962 S.O2    1  UNL1        0.0736
     25 O          63.0767   89.6542   10.8321 O.2     1  UNL1       -0.1499
     26 O          63.1562   90.3013   13.7605 O.2     1  UNL1       -0.1499
     27 C          64.0764   91.0975   12.0227 C.ar    1  UNL1        0.1252
     28 C          64.0198   91.8316   10.7159 C.ar    1  UNL1        0.0210
     29 C          64.9797   92.9513   10.4424 C.ar    1  UNL1        0.0127
     30 C          65.9963   93.3368   11.4759 C.ar    1  UNL1        0.0616
     31 CL         66.9563   94.4565   11.2024 Cl      1  UNL1       -0.0823
     32 C          66.0529   92.6027   12.7827 C.ar    1  UNL1        0.0833
     33 C          65.0930   91.4830   13.0562 C.ar    1  UNL1        0.0249
     34 C          67.0695   92.9883   13.8160 C.3     1  UNL1        0.4194
     35 F          68.0862   93.3739   14.8494 F       1  UNL1       -0.1658
     36 F          67.9452   91.8516   13.3787 F       1  UNL1       -0.1658
     37 F          66.1939   94.1249   14.2534 F       1  UNL1       -0.1658
@<TRIPOS>BOND
     1    20    21    1
     2    21    10    1
     3    10    11    2
     4    11     8    1
     5     8     9    2
     6     8     1    1
     7     1     2   ar
     8     2     3   ar
     9     3     4   ar
    10     4     5    1
    11     4     6   ar
    12     6     7   ar
    13     7    22    1
    14    22    24    1
    15    24    25    2
    16    24    26    2
    17    24    27    1
    18    27    28   ar
    19    28    29   ar
    20    29    30   ar
    21    30    31    1
    22    30    32   ar
    23    32    34    1
    24    34    35    1
    25    34    36    1
    26    34    37    1
    27    32    33   ar
    28    11    12    1
    29    12    13    1
    30    13    14    2
    31    14    15    1
    32    15    16    1
    33    16    17    1
    34    17    18    2
    35    18    10    1
    36     7     1   ar
    37    33    27   ar
    38    16    12    1
    39    22    23    1
    40    15    19    1
@<TRIPOS>MOLECULE
*****
 37 40 0 0 0
SMALL
GASTEIGER

@<TRIPOS>ATOM
      1 C          61.9724   86.5969   11.1467 C.ar    1  UNL1        0.1344
      2 N          61.8384   85.7555    9.9122 N.ar    1  UNL1       -0.2396
      3 C          61.0281   86.2510    8.7512 C.ar    1  UNL1        0.0947
      4 C          60.3518   87.5879    8.8248 C.ar    1  UNL1       -0.0014
      5 C          59.5415   88.0835    7.6638 C.3     1  UNL1        0.0327
      6 C          60.4859   88.4293   10.0593 C.ar    1  UNL1        0.0148
      7 C          61.2962   87.9338   11.2203 C.ar    1  UNL1        0.0852
      8 C          62.7827   86.1014   12.3076 C.2     1  UNL1        0.2137
      9 O          63.6024   87.0636   13.1153 O.2     1  UNL1       -0.2851
     10 C          62.2724   84.2004   14.0035 C.2     1  UNL1        0.1569
     11 C          62.7735   84.6436   12.6609 C.2     1  UNL1        0.0611
     12 C          63.2653   83.6290   11.6716 C.3     1  UNL1        0.0930
     13 C          63.8133   83.7657   10.2821 C.2     1  UNL1       -0.0026
     14 C          64.1428   82.3923    9.7765 C.2     1  UNL1        0.0551
     15 N          63.7984   81.4069   10.8537 N.pl3   1  UNL1       -0.3144
     16 C          63.2560   82.1713   12.0249 C.3     1  UNL1        0.1834
     17 N          62.7550   81.7281   13.3675 N.2     1  UNL1       -0.2469
     18 C          62.2632   82.7427   14.3568 C.2     1  UNL1        0.1316
     19 H          63.9088   80.4300   10.8012 H       1  UNL1        0.1485
     20 C          62.3368   85.2352   16.3857 C.3     1  UNL1        0.2525
     21 O          61.7806   85.2151   14.9927 O.2     1  UNL1       -0.4701
     22 N          61.4302   88.7752   12.4549 N.pl3   1  UNL1       -0.2134
     23 H          60.7573   88.7099   13.1705 H       1  UNL1        0.1738
     24 S          62.5895   89.7160   12.5991 S.O2    1  UNL1        0.0736
     25 O          62.3323   89.8069   14.0740 O.2     1  UNL1       -0.1499
     26 O          62.8468   89.6250   11.1240 O.2     1  UNL1       -0.1499
     27 C          63.7489   90.6568   12.7433 C.ar    1  UNL1        0.1252
     28 C          64.3959   90.8501   14.0827 C.ar    1  UNL1        0.0210
     29 C          65.5552   91.7909   14.2269 C.ar    1  UNL1        0.0127
     30 C          66.0675   92.5385   13.0316 C.ar    1  UNL1        0.0616
     31 CL         67.2268   93.4793   13.1758 Cl      1  UNL1       -0.0823
     32 C          65.4205   92.3452   11.6922 C.ar    1  UNL1        0.0833
     33 C          64.2612   91.4044   11.5480 C.ar    1  UNL1        0.0249
     34 C          65.9329   93.0928   10.4970 C.3     1  UNL1        0.4194
     35 F          66.4453   93.8404    9.3017 F       1  UNL1       -0.1658
     36 F          64.9481   94.1927   10.7627 F       1  UNL1       -0.1658
     37 F          66.9177   91.9930   10.2312 F       1  UNL1       -0.1658
@<TRIPOS>BOND
     1    20    21    1
     2    21    10    1
     3    10    11    2
     4    11     8    1
     5     8     9    2
     6     8     1    1
     7     1     2   ar
     8     2     3   ar
     9     3     4   ar
    10     4     5    1
    11     4     6   ar
    12     6     7   ar
    13     7    22    1
    14    22    24    1
    15    24    25    2
    16    24    26    2
    17    24    27    1
    18    27    28   ar
    19    28    29   ar
    20    29    30   ar
    21    30    31    1
    22    30    32   ar
    23    32    34    1
    24    34    35    1
    25    34    36    1
    26    34    37    1
    27    32    33   ar
    28    11    12    1
    29    12    13    1
    30    13    14    2
    31    14    15    1
    32    15    16    1
    33    16    17    1
    34    17    18    2
    35    18    10    1
    36     7     1   ar
    37    33    27   ar
    38    16    12    1
    39    22    23    1
    40    15    19    1
@<TRIPOS>MOLECULE
*****
 37 40 0 0 0
SMALL
GASTEIGER

@<TRIPOS>ATOM
      1 C          61.6915   86.7747   10.7606 C.ar    1  UNL1        0.1344
      2 N          61.2230   85.9855    9.5742 N.ar    1  UNL1       -0.2396
      3 C          60.3042   86.6155    8.5697 C.ar    1  UNL1        0.0947
      4 C          59.8541   88.0347    8.7517 C.ar    1  UNL1       -0.0014
      5 C          58.9353   88.6648    7.7472 C.3     1  UNL1        0.0327
      6 C          60.3226   88.8240    9.9381 C.ar    1  UNL1        0.0148
      7 C          61.2414   88.1940   10.9426 C.ar    1  UNL1        0.0852
      8 C          62.6103   86.1447   11.7651 C.2     1  UNL1        0.2137
      9 O          63.2105   86.9777   12.8586 O.2     1  UNL1       -0.2851
     10 C          63.4319   84.1006   10.3878 C.2     1  UNL1        0.1569
     11 C          62.9288   84.6816   11.6760 C.2     1  UNL1        0.0611
     12 C          62.7444   83.7996   12.8751 C.3     1  UNL1        0.0930
     13 C          62.2684   84.0863   14.2684 C.2     1  UNL1       -0.0026
     14 C          62.2928   82.8005   15.0405 C.2     1  UNL1        0.0551
     15 N          62.7839   81.7190   14.1244 N.pl3   1  UNL1       -0.3144
     16 C          63.0629   82.3365   12.7861 C.3     1  UNL1        0.1834
     17 N          63.5660   81.7555   11.4979 N.2     1  UNL1       -0.2469
     18 C          63.7505   82.6375   10.2988 C.2     1  UNL1        0.1316
     19 H          62.9022   80.7705   14.3600 H       1  UNL1        0.1485
     20 C          63.1297   84.5312    7.8436 C.3     1  UNL1        0.2525
     21 O          63.6163   84.9827    9.1888 O.2     1  UNL1       -0.4701
     22 N          61.7099   88.9832   12.1290 N.pl3   1  UNL1       -0.2134
     23 H          61.3153   88.8197   13.0160 H       1  UNL1        0.1738
     24 S          62.7797   90.0216   11.9639 S.O2    1  UNL1        0.0736
     25 O          62.7506   89.8155   10.4784 O.2     1  UNL1       -0.1499
     26 O          62.8088   90.2277   13.4495 O.2     1  UNL1       -0.1499
     27 C          63.8495   91.0600   11.7989 C.ar    1  UNL1        0.1252
     28 C          63.9267   91.8630   10.5343 C.ar    1  UNL1        0.0210
     29 C          64.9965   92.9014   10.3693 C.ar    1  UNL1        0.0127
     30 C          65.9892   93.1367   11.4689 C.ar    1  UNL1        0.0616
     31 CL         67.0590   94.1751   11.3039 Cl      1  UNL1       -0.0823
     32 C          65.9120   92.3338   12.7335 C.ar    1  UNL1        0.0833
     33 C          64.8422   91.2954   12.8985 C.ar    1  UNL1        0.0249
     34 C          66.9048   92.5692   13.8331 C.3     1  UNL1        0.4194
     35 F          67.8975   92.8047   14.9327 F       1  UNL1       -0.1658
     36 F          67.8427   91.5868   13.1967 F       1  UNL1       -0.1658
     37 F          65.9668   93.5516   14.4695 F       1  UNL1       -0.1658
@<TRIPOS>BOND
     1    20    21    1
     2    21    10    1
     3    10    11    2
     4    11     8    1
     5     8     9    2
     6     8     1    1
     7     1     2   ar
     8     2     3   ar
     9     3     4   ar
    10     4     5    1
    11     4     6   ar
    12     6     7   ar
    13     7    22    1
    14    22    24    1
    15    24    25    2
    16    24    26    2
    17    24    27    1
    18    27    28   ar
    19    28    29   ar
    20    29    30   ar
    21    30    31    1
    22    30    32   ar
    23    32    34    1
    24    34    35    1
    25    34    36    1
    26    34    37    1
    27    32    33   ar
    28    11    12    1
    29    12    13    1
    30    13    14    2
    31    14    15    1
    32    15    16    1
    33    16    17    1
    34    17    18    2
    35    18    10    1
    36     7     1   ar
    37    33    27   ar
    38    16    12    1
    39    22    23    1
    40    15    19    1
@<TRIPOS>MOLECULE
*****
 37 40 0 0 0
SMALL
GASTEIGER

@<TRIPOS>ATOM
      1 C          61.2037   88.9334   11.4045 C.ar    1  UNL1        0.1344
      2 N          60.3104   89.4999   10.3409 N.ar    1  UNL1       -0.2396
      3 C          60.1391   88.7731    9.0399 C.ar    1  UNL1        0.0947
      4 C          60.8610   87.4799    8.8026 C.ar    1  UNL1       -0.0014
      5 C          60.6898   86.7531    7.5016 C.3     1  UNL1        0.0327
      6 C          61.7543   86.9134    9.8662 C.ar    1  UNL1        0.0148
      7 C          61.9256   87.6402   11.1671 C.ar    1  UNL1        0.0852
      8 C          61.3749   89.6602   12.7054 C.2     1  UNL1        0.2137
      9 O          60.2229   89.7717   13.6595 O.2     1  UNL1       -0.2851
     10 C          63.2420   90.1498   14.4445 C.2     1  UNL1        0.1569
     11 C          62.6982   90.2756   13.0522 C.2     1  UNL1        0.0611
     12 C          63.4777   91.0168   12.0067 C.3     1  UNL1        0.0930
     13 C          63.1982   91.3027   10.5610 C.2     1  UNL1       -0.0026
     14 C          64.3488   92.0948   10.0142 C.2     1  UNL1        0.0551
     15 N          65.3393   92.2984   11.1221 N.pl3   1  UNL1       -0.3144
     16 C          64.8009   91.6322   12.3535 C.3     1  UNL1        0.1834
     17 N          65.3447   91.5064   13.7458 N.2     1  UNL1       -0.2469
     18 C          64.5652   90.7652   14.7913 C.2     1  UNL1        0.1316
     19 H          66.1929   92.7841   11.0532 H       1  UNL1        0.1485
     20 C          63.1495   88.9157   16.7288 C.3     1  UNL1        0.2525
     21 O          62.4624   89.4086   15.4899 O.2     1  UNL1       -0.4701
     22 N          62.8189   87.0737   12.2307 N.pl3   1  UNL1       -0.2134
     23 H          63.4206   87.6672   12.7357 H       1  UNL1        0.1738
     24 S          62.7954   85.6030   12.5249 S.O2    1  UNL1        0.0736
     25 O          61.6487   85.4310   11.5734 O.2     1  UNL1       -0.1499
     26 O          63.9422   85.7751   13.4764 O.2     1  UNL1       -0.1499
     27 C          62.7719   84.1324   12.8191 C.ar    1  UNL1        0.1252
     28 C          62.6173   83.6524   14.2317 C.ar    1  UNL1        0.0210
     29 C          62.5938   82.1818   14.5259 C.ar    1  UNL1        0.0127
     30 C          62.7250   81.1910   13.4073 C.ar    1  UNL1        0.0616
     31 CL         62.7015   79.7203   13.7015 Cl      1  UNL1       -0.0823
     32 C          62.8796   81.6709   11.9946 C.ar    1  UNL1        0.0833
     33 C          62.9031   83.1416   11.7005 C.ar    1  UNL1        0.0249
     34 C          63.0108   80.6801   10.8761 C.3     1  UNL1        0.4194
     35 F          63.1419   79.6893    9.7576 F       1  UNL1       -0.1658
     36 F          63.6117   81.7431   10.0050 F       1  UNL1       -0.1658
     37 F          62.4098   79.6171   11.7473 F       1  UNL1       -0.1658
@<TRIPOS>BOND
     1    20    21    1
     2    21    10    1
     3    10    11    2
     4    11     8    1
     5     8     9    2
     6     8     1    1
     7     1     2   ar
     8     2     3   ar
     9     3     4   ar
    10     4     5    1
    11     4     6   ar
    12     6     7   ar
    13     7    22    1
    14    22    24    1
    15    24    25    2
    16    24    26    2
    17    24    27    1
    18    27    28   ar
    19    28    29   ar
    20    29    30   ar
    21    30    31    1
    22    30    32   ar
    23    32    34    1
    24    34    35    1
    25    34    36    1
    26    34    37    1
    27    32    33   ar
    28    11    12    1
    29    12    13    1
    30    13    14    2
    31    14    15    1
    32    15    16    1
    33    16    17    1
    34    17    18    2
    35    18    10    1
    36     7     1   ar
    37    33    27   ar
    38    16    12    1
    39    22    23    1
    40    15    19    1
@<TRIPOS>MOLECULE
*****
 37 40 0 0 0
SMALL
GASTEIGER

@<TRIPOS>ATOM
      1 C          61.6839   86.9639   10.5090 C.ar    1  UNL1        0.1344
      2 N          61.4596   86.2921    9.1867 N.ar    1  UNL1       -0.2396
      3 C          60.5940   86.9459    8.1507 C.ar    1  UNL1        0.0947
      4 C          59.9529   88.2714    8.4368 C.ar    1  UNL1       -0.0014
      5 C          59.0873   88.9253    7.4008 C.3     1  UNL1        0.0327
      6 C          60.1773   88.9432    9.7591 C.ar    1  UNL1        0.0148
      7 C          61.0428   88.2894   10.7952 C.ar    1  UNL1        0.0852
      8 C          62.5494   86.3101   11.5450 C.2     1  UNL1        0.2137
      9 O          63.1248   87.1256   12.6649 O.2     1  UNL1       -0.2851
     10 C          63.3169   84.2429   10.1710 C.2     1  UNL1        0.1569
     11 C          62.8396   84.8408   11.4613 C.2     1  UNL1        0.0611
     12 C          62.6526   83.9695   12.6678 C.3     1  UNL1        0.0930
     13 C          62.1982   84.2733   14.0646 C.2     1  UNL1       -0.0026
     14 C          62.2075   82.9918   14.8443 C.2     1  UNL1        0.0551
     15 N          62.6677   81.8960   13.9293 N.pl3   1  UNL1       -0.3144
     16 C          62.9428   82.5002   12.5841 C.3     1  UNL1        0.1834
     17 N          63.4201   81.9023   11.2939 N.2     1  UNL1       -0.2469
     18 C          63.6071   82.7737   10.0873 C.2     1  UNL1        0.1316
     19 H          62.7711   80.9468   14.1693 H       1  UNL1        0.1485
     20 C          63.1103   84.6108    7.6075 C.3     1  UNL1        0.2525
     21 O          63.5039   85.1143    8.9646 O.2     1  UNL1       -0.4701
     22 N          61.2672   88.9612   12.1175 N.pl3   1  UNL1       -0.2134
     23 H          60.6293   88.8227   12.8545 H       1  UNL1        0.1738
     24 S          62.4633   89.8441   12.3168 S.O2    1  UNL1        0.0736
     25 O          62.2026   89.8638   13.7938 O.2     1  UNL1       -0.1499
     26 O          62.7240   89.8243   10.8397 O.2     1  UNL1       -0.1499
     27 C          63.6595   90.7269   12.5161 C.ar    1  UNL1        0.1252
     28 C          64.2907   90.8398   13.8721 C.ar    1  UNL1        0.0210
     29 C          65.4869   91.7227   14.0714 C.ar    1  UNL1        0.0127
     30 C          66.0519   92.4926   12.9146 C.ar    1  UNL1        0.0616
     31 CL         67.2481   93.3754   13.1140 Cl      1  UNL1       -0.0823
     32 C          65.4206   92.3796   11.5586 C.ar    1  UNL1        0.0833
     33 C          64.2245   91.4968   11.3593 C.ar    1  UNL1        0.0249
     34 C          65.9857   93.1496   10.4019 C.3     1  UNL1        0.4194
     35 F          66.5507   93.9195    9.2452 F       1  UNL1       -0.1658
     36 F          66.9176   92.0134   10.1009 F       1  UNL1       -0.1658
     37 F          65.0537   94.2857   10.7030 F       1  UNL1       -0.1658
@<TRIPOS>BOND
     1    20    21    1
     2    21    10    1
     3    10    11    2
     4    11     8    1
     5     8     9    2
     6     8     1    1
     7     1     2   ar
     8     2     3   ar
     9     3     4   ar
    10     4     5    1
    11     4     6   ar
    12     6     7   ar
    13     7    22    1
    14    22    24    1
    15    24    25    2
    16    24    26    2
    17    24    27    1
    18    27    28   ar
    19    28    29   ar
    20    29    30   ar
    21    30    31    1
    22    30    32   ar
    23    32    34    1
    24    34    35    1
    25    34    36    1
    26    34    37    1
    27    32    33   ar
    28    11    12    1
    29    12    13    1
    30    13    14    2
    31    14    15    1
    32    15    16    1
    33    16    17    1
    34    17    18    2
    35    18    10    1
    36     7     1   ar
    37    33    27   ar
    38    16    12    1
    39    22    23    1
    40    15    19    1
@<TRIPOS>MOLECULE
*****
 37 40 0 0 0
SMALL
GASTEIGER

@<TRIPOS>ATOM
      1 C          63.8343   89.3071   13.0080 C.ar    1  UNL1        0.1344
      2 N          63.7730   90.5409   12.1571 N.ar    1  UNL1       -0.2396
      3 C          62.9441   90.5495   10.9070 C.ar    1  UNL1        0.0947
      4 C          62.1765   89.3242   10.5077 C.ar    1  UNL1       -0.0014
      5 C          61.3475   89.3327    9.2576 C.3     1  UNL1        0.0327
      6 C          62.2378   88.0904   11.3586 C.ar    1  UNL1        0.0148
      7 C          63.0667   88.0818   12.6087 C.ar    1  UNL1        0.0852
      8 C          64.6633   89.2986   14.2580 C.2     1  UNL1        0.2137
      9 O          65.3465   88.0372   14.6963 O.2     1  UNL1       -0.2851
     10 C          63.8155   90.8659   16.1487 C.2     1  UNL1        0.1569
     11 C          64.8090   90.5514   15.0699 C.2     1  UNL1        0.0611
     12 C          65.9484   91.4898   14.8029 C.3     1  UNL1        0.0930
     13 C          67.0745   91.4453   13.8130 C.2     1  UNL1       -0.0026
     14 C          67.9163   92.6707   14.0130 C.2     1  UNL1        0.0551
     15 N          67.3104   93.4725   15.1266 N.pl3   1  UNL1       -0.3144
     16 C          66.0941   92.7426   15.6147 C.3     1  UNL1        0.1834
     17 N          65.1006   93.0571   16.6936 N.2     1  UNL1       -0.2469
     18 C          63.9612   92.1187   16.9606 C.2     1  UNL1        0.1316
     19 H          67.6511   94.3276   15.4758 H       1  UNL1        0.1485
     20 C          62.9318   88.6078   17.0815 C.3     1  UNL1        0.2525
     21 O          62.6762   89.9274   16.4157 O.2     1  UNL1       -0.4701
     22 N          63.1280   86.8479   13.4595 N.pl3   1  UNL1       -0.2134
     23 H          63.1730   86.9277   14.4397 H       1  UNL1        0.1738
     24 S          63.1207   85.4926   12.8168 S.O2    1  UNL1        0.0736
     25 O          61.8341   85.8287   12.1228 O.2     1  UNL1       -0.1499
     26 O          64.4074   85.1566   13.5109 O.2     1  UNL1       -0.1499
     27 C          63.1134   84.1373   12.1741 C.ar    1  UNL1        0.1252
     28 C          63.4472   83.9956   10.7187 C.ar    1  UNL1        0.0210
     29 C          63.4399   82.6402   10.0760 C.ar    1  UNL1        0.0127
     30 C          63.0987   81.4266   10.8889 C.ar    1  UNL1        0.0616
     31 CL         63.0914   80.0713   10.2462 Cl      1  UNL1       -0.0823
     32 C          62.7649   81.5684   12.3443 C.ar    1  UNL1        0.0833
     33 C          62.7722   82.9237   12.9870 C.ar    1  UNL1        0.0249
     34 C          62.4237   80.3547   13.1572 C.3     1  UNL1        0.4194
     35 F          62.0826   79.1410   13.9700 F       1  UNL1       -0.1658
     36 F          60.9634   80.6563   12.9945 F       1  UNL1       -0.1658
     37 F          63.8841   80.0531   13.3198 F       1  UNL1       -0.1658
@<TRIPOS>BOND
     1    20    21    1
     2    21    10    1
     3    10    11    2
     4    11     8    1
     5     8     9    2
     6     8     1    1
     7     1     2   ar
     8     2     3   ar
     9     3     4   ar
    10     4     5    1
    11     4     6   ar
    12     6     7   ar
    13     7    22    1
    14    22    24    1
    15    24    25    2
    16    24    26    2
    17    24    27    1
    18    27    28   ar
    19    28    29   ar
    20    29    30   ar
    21    30    31    1
    22    30    32   ar
    23    32    34    1
    24    34    35    1
    25    34    36    1
    26    34    37    1
    27    32    33   ar
    28    11    12    1
    29    12    13    1
    30    13    14    2
    31    14    15    1
    32    15    16    1
    33    16    17    1
    34    17    18    2
    35    18    10    1
    36     7     1   ar
    37    33    27   ar
    38    16    12    1
    39    22    23    1
    40    15    19    1
@<TRIPOS>MOLECULE
*****
 37 40 0 0 0
SMALL
GASTEIGER

@<TRIPOS>ATOM
      1 C          65.5040   92.8339   13.6468 C.ar    1  UNL1        0.1344
      2 N          65.7614   92.8168   15.1245 N.ar    1  UNL1       -0.2396
      3 C          65.0764   91.8042   15.9935 C.ar    1  UNL1        0.0947
      4 C          64.1338   90.8086   15.3848 C.ar    1  UNL1       -0.0014
      5 C          63.4487   89.7958   16.2537 C.3     1  UNL1        0.0327
      6 C          63.8764   90.8257   13.9072 C.ar    1  UNL1        0.0148
      7 C          64.5614   91.8384   13.0382 C.ar    1  UNL1        0.0852
      8 C          66.1891   93.8466   12.7779 C.2     1  UNL1        0.2137
      9 O          66.1479   95.3004   13.1451 O.2     1  UNL1       -0.2851
     10 C          67.8054   92.1989   11.5852 C.2     1  UNL1        0.1569
     11 C          66.9154   93.4056   11.5418 C.2     1  UNL1        0.0611
     12 C          66.7518   94.1713   10.2624 C.3     1  UNL1        0.0930
     13 C          65.9488   95.3905    9.9180 C.2     1  UNL1       -0.0026
     14 C          66.1788   95.7031    8.4690 C.2     1  UNL1        0.0551
     15 N          67.1240   94.6770    7.9179 N.pl3   1  UNL1       -0.3144
     16 C          67.4781   93.7303    9.0263 C.3     1  UNL1        0.1834
     17 N          68.3681   92.5236    9.0696 N.2     1  UNL1       -0.2469
     18 C          68.5317   91.7579   10.3491 C.2     1  UNL1        0.1316
     19 H          67.4540   94.6326    6.9914 H       1  UNL1        0.1485
     20 C          69.0180   91.8437   13.8552 C.3     1  UNL1        0.2525
     21 O          67.9690   91.4333   12.8646 O.2     1  UNL1       -0.4701
     22 N          64.3040   91.8554   11.5605 N.pl3   1  UNL1       -0.2134
     23 H          64.7476   92.5251   10.9913 H       1  UNL1        0.1738
     24 S          63.3706   90.8523   10.9502 S.O2    1  UNL1        0.0736
     25 O          63.0659   91.8122    9.8385 O.2     1  UNL1       -0.1499
     26 O          63.6753   89.8925   12.0619 O.2     1  UNL1       -0.1499
     27 C          62.4372   89.8492   10.3399 C.ar    1  UNL1        0.1252
     28 C          61.1360   90.3002    9.7452 C.ar    1  UNL1        0.0210
     29 C          60.2026   89.2971    9.1349 C.ar    1  UNL1        0.0127
     30 C          60.5704   87.8429    9.1192 C.ar    1  UNL1        0.0616
     31 CL         59.6370   86.8398    8.5089 Cl      1  UNL1       -0.0823
     32 C          61.8716   87.3920    9.7138 C.ar    1  UNL1        0.0833
     33 C          62.8050   88.3951   10.3242 C.ar    1  UNL1        0.0249
     34 C          62.2393   85.9378    9.6981 C.3     1  UNL1        0.4194
     35 F          62.6071   84.4837    9.6824 F       1  UNL1       -0.1658
     36 F          63.0546   86.1574    8.4583 F       1  UNL1       -0.1658
     37 F          61.4241   85.7182   10.9379 F       1  UNL1       -0.1658
@<TRIPOS>BOND
     1    20    21    1
     2    21    10    1
     3    10    11    2
     4    11     8    1
     5     8     9    2
     6     8     1    1
     7     1     2   ar
     8     2     3   ar
     9     3     4   ar
    10     4     5    1
    11     4     6   ar
    12     6     7   ar
    13     7    22    1
    14    22    24    1
    15    24    25    2
    16    24    26    2
    17    24    27    1
    18    27    28   ar
    19    28    29   ar
    20    29    30   ar
    21    30    31    1
    22    30    32   ar
    23    32    34    1
    24    34    35    1
    25    34    36    1
    26    34    37    1
    27    32    33   ar
    28    11    12    1
    29    12    13    1
    30    13    14    2
    31    14    15    1
    32    15    16    1
    33    16    17    1
    34    17    18    2
    35    18    10    1
    36     7     1   ar
    37    33    27   ar
    38    16    12    1
    39    22    23    1
    40    15    19    1
@<TRIPOS>MOLECULE
*****
 37 40 0 0 0
SMALL
GASTEIGER

@<TRIPOS>ATOM
      1 C          62.4117   85.0976   11.1461 C.ar    1  UNL1        0.1344
      2 N          62.9973   83.8806   10.4934 N.ar    1  UNL1       -0.2396
      3 C          63.2334   83.8642    9.0122 C.ar    1  UNL1        0.0947
      4 C          62.8838   85.0647    8.1837 C.ar    1  UNL1       -0.0014
      5 C          63.1199   85.0484    6.7024 C.3     1  UNL1        0.0327
      6 C          62.2982   86.2817    8.8363 C.ar    1  UNL1        0.0148
      7 C          62.0622   86.2982   10.3175 C.ar    1  UNL1        0.0852
      8 C          62.1756   85.1140   12.6272 C.2     1  UNL1        0.2137
      9 O          61.0831   85.9652   13.2033 O.2     1  UNL1       -0.2851
     10 C          64.0398   84.9365   14.4282 C.2     1  UNL1        0.1569
     11 C          63.0320   84.2791   13.5325 C.2     1  UNL1        0.0611
     12 C          62.8807   82.7868   13.5421 C.3     1  UNL1        0.0930
     13 C          61.9796   81.8643   12.7759 C.2     1  UNL1       -0.0026
     14 C          62.2791   80.4593   13.2075 C.2     1  UNL1        0.0551
     15 N          63.3653   80.5134   14.2406 N.pl3   1  UNL1       -0.3144
     16 C          63.7371   81.9519   14.4474 C.3     1  UNL1        0.1834
     17 N          64.7448   82.6093   15.3431 N.2     1  UNL1       -0.2469
     18 C          64.8962   84.1016   15.3335 C.2     1  UNL1        0.1316
     19 H          63.7642   79.7405   14.7020 H       1  UNL1        0.1485
     20 C          63.8701   87.2231   15.6498 C.3     1  UNL1        0.2525
     21 O          64.1910   86.4288   14.4185 O.2     1  UNL1       -0.4701
     22 N          61.4766   87.5152   10.9702 N.pl3   1  UNL1       -0.2134
     23 H          60.5299   87.5214   11.2406 H       1  UNL1        0.1738
     24 S          62.3332   88.7227   11.2109 S.O2    1  UNL1        0.0736
     25 O          61.5629   89.4771   10.1681 O.2     1  UNL1       -0.1499
     26 O          63.1035   87.9683   12.2538 O.2     1  UNL1       -0.1499
     27 C          63.1899   89.9302   11.4516 C.ar    1  UNL1        0.1252
     28 C          63.3471   90.9647   10.3769 C.ar    1  UNL1        0.0210
     29 C          64.2038   92.1722   10.6176 C.ar    1  UNL1        0.0127
     30 C          64.9033   92.3453   11.9332 C.ar    1  UNL1        0.0616
     31 CL         65.7600   93.5528   12.1739 Cl      1  UNL1       -0.0823
     32 C          64.7461   91.3108   13.0079 C.ar    1  UNL1        0.0833
     33 C          63.8894   90.1033   12.7672 C.ar    1  UNL1        0.0249
     34 C          65.4457   91.4840   14.3235 C.3     1  UNL1        0.4194
     35 F          66.1452   91.6571   15.6390 F       1  UNL1       -0.1658
     36 F          64.1191   91.6090   15.0124 F       1  UNL1       -0.1658
     37 F          66.7722   91.3589   13.6345 F       1  UNL1       -0.1658
@<TRIPOS>BOND
     1    20    21    1
     2    21    10    1
     3    10    11    2
     4    11     8    1
     5     8     9    2
     6     8     1    1
     7     1     2   ar
     8     2     3   ar
     9     3     4   ar
    10     4     5    1
    11     4     6   ar
    12     6     7   ar
    13     7    22    1
    14    22    24    1
    15    24    25    2
    16    24    26    2
    17    24    27    1
    18    27    28   ar
    19    28    29   ar
    20    29    30   ar
    21    30    31    1
    22    30    32   ar
    23    32    34    1
    24    34    35    1
    25    34    36    1
    26    34    37    1
    27    32    33   ar
    28    11    12    1
    29    12    13    1
    30    13    14    2
    31    14    15    1
    32    15    16    1
    33    16    17    1
    34    17    18    2
    35    18    10    1
    36     7     1   ar
    37    33    27   ar
    38    16    12    1
    39    22    23    1
    40    15    19    1
@<TRIPOS>MOLECULE
*****
 37 40 0 0 0
SMALL
GASTEIGER

@<TRIPOS>ATOM
      1 C          62.0186   89.5907   12.3995 C.ar    1  UNL1        0.1344
      2 N          60.9509   90.4387   11.7742 N.ar    1  UNL1       -0.2396
      3 C          60.1996   89.9366   10.5770 C.ar    1  UNL1        0.0947
      4 C          60.5159   88.5865   10.0050 C.ar    1  UNL1       -0.0014
      5 C          59.7646   88.0843    8.8077 C.3     1  UNL1        0.0327
      6 C          61.5836   87.7385   10.6303 C.ar    1  UNL1        0.0148
      7 C          62.3349   88.2406   11.8275 C.ar    1  UNL1        0.0852
      8 C          62.7699   90.0929   13.5967 C.2     1  UNL1        0.2137
      9 O          62.3628   89.6592   14.9737 O.2     1  UNL1       -0.2851
     10 C          64.4134   91.3656   12.0381 C.2     1  UNL1        0.1569
     11 C          63.9282   91.0288   13.4170 C.2     1  UNL1        0.0611
     12 C          64.6013   91.6279   14.6161 C.3     1  UNL1        0.0930
     13 C          64.3467   91.4828   16.0871 C.2     1  UNL1       -0.0026
     14 C          65.3476   92.3290   16.8167 C.2     1  UNL1        0.0551
     15 N          66.2209   92.9971   15.7964 N.pl3   1  UNL1       -0.3144
     16 C          65.7597   92.5638   14.4364 C.3     1  UNL1        0.1834
     17 N          66.2449   92.9006   13.0575 N.2     1  UNL1       -0.2469
     18 C          65.5717   92.3015   11.8584 C.2     1  UNL1        0.1316
     19 H          66.9660   93.6121   15.9861 H       1  UNL1        0.1485
     20 C          63.3385   91.6418    9.6891 C.3     1  UNL1        0.2525
     21 O          63.7402   90.7665   10.8391 O.2     1  UNL1       -0.4701
     22 N          63.4026   87.3926   12.4528 N.pl3   1  UNL1       -0.2134
     23 H          64.2623   87.7959   12.7128 H       1  UNL1        0.1738
     24 S          63.1605   85.9301   12.6820 S.O2    1  UNL1        0.0736
     25 O          62.8795   85.7475   11.2200 O.2     1  UNL1       -0.1499
     26 O          63.4415   86.1129   14.1442 O.2     1  UNL1       -0.1499
     27 C          62.9184   84.4677   12.9113 C.ar    1  UNL1        0.1252
     28 C          62.4844   83.9820   14.2625 C.ar    1  UNL1        0.0210
     29 C          62.2423   82.5195   14.4917 C.ar    1  UNL1        0.0127
     30 C          62.4342   81.5427   13.3696 C.ar    1  UNL1        0.0616
     31 CL         62.1921   80.0802   13.5988 Cl      1  UNL1       -0.0823
     32 C          62.8681   82.0284   12.0184 C.ar    1  UNL1        0.0833
     33 C          63.1102   83.4908   11.7892 C.ar    1  UNL1        0.0249
     34 C          63.0599   81.0515   10.8964 C.3     1  UNL1        0.4194
     35 F          63.2518   80.0746    9.7743 F       1  UNL1       -0.1658
     36 F          62.5192   79.9518   11.7614 F       1  UNL1       -0.1658
     37 F          63.6007   82.1512   10.0314 F       1  UNL1       -0.1658
@<TRIPOS>BOND
     1    20    21    1
     2    21    10    1
     3    10    11    2
     4    11     8    1
     5     8     9    2
     6     8     1    1
     7     1     2   ar
     8     2     3   ar
     9     3     4   ar
    10     4     5    1
    11     4     6   ar
    12     6     7   ar
    13     7    22    1
    14    22    24    1
    15    24    25    2
    16    24    26    2
    17    24    27    1
    18    27    28   ar
    19    28    29   ar
    20    29    30   ar
    21    30    31    1
    22    30    32   ar
    23    32    34    1
    24    34    35    1
    25    34    36    1
    26    34    37    1
    27    32    33   ar
    28    11    12    1
    29    12    13    1
    30    13    14    2
    31    14    15    1
    32    15    16    1
    33    16    17    1
    34    17    18    2
    35    18    10    1
    36     7     1   ar
    37    33    27   ar
    38    16    12    1
    39    22    23    1
    40    15    19    1
