@<TRIPOS>MOLECULE
*****
 47 52 0 0 0
SMALL
GASTEIGER

@<TRIPOS>ATOM
      1 C          59.7797   90.0903    6.3807 C.2     1  UNL1        0.0332
      2 C          58.2967   90.2690    6.2448 C.2     1  UNL1        0.0101
      3 C          57.7404   91.0955    5.1235 C.2     1  UNL1        0.0255
      4 C          56.2572   91.2742    4.9877 C.3     1  UNL1        0.0351
      5 C          58.6672   91.7433    4.1380 C.2     1  UNL1        0.2278
      6 N          58.4124   92.6081    2.9391 N.2     1  UNL1       -0.0345
      7 C          59.7380   92.9639    2.3341 C.2     1  UNL1        0.3649
      8 N          60.8122   92.3190    3.1589 N.2     1  UNL1       -0.0380
      9 C          60.1504   91.5646    4.2738 C.2     1  UNL1        0.2184
     10 C          60.7066   90.7381    5.3952 C.3     1  UNL1        0.1186
     11 C          59.9520   93.8151    1.1176 C.3     1  UNL1        0.2250
     12 C          59.3837   93.3908   -0.2041 C.2     1  UNL1        0.0436
     13 C          59.5977   94.2421   -1.4205 C.2     1  UNL1        0.0288
     14 C          60.3801   95.5176   -1.3152 C.2     1  UNL1        0.0896
     15 N          60.9484   95.9418    0.0066 N.am    1  UNL1       -0.1770
     16 C          60.7344   95.0905    1.2230 C.2     1  UNL1        0.2627
     17 O          61.3027   95.5148    2.5447 O.2     1  UNL1       -0.2719
     18 N          58.6013   92.1154   -0.3095 N.pl3   1  UNL1       -0.3329
     19 H          58.9993   91.2674   -0.0066 H       1  UNL1        0.1466
     20 C          57.2127   92.1319   -0.8764 C.3     1  UNL1        0.1211
     21 C          57.0025   92.3944   -2.3382 C.3     1  UNL1        0.1522
     22 O          57.6671   91.5205   -3.3603 O.3     1  UNL1       -0.3783
     23 H          58.1923   90.8397   -2.9113 H       1  UNL1        0.2109
     24 C          56.1277   93.5307   -2.7780 C.ar    1  UNL1        0.0067
     25 C          56.1327   93.9696   -4.2123 C.ar    1  UNL1       -0.0018
     26 C          55.2579   95.1059   -4.6520 C.ar    1  UNL1        0.0006
     27 C          54.3780   95.8035   -3.6574 C.ar    1  UNL1        0.0114
     28 C          54.3731   95.3647   -2.2231 C.ar    1  UNL1        0.0574
     29 CL         53.4932   96.0623   -1.2285 Cl      1  UNL1       -0.0823
     30 C          55.2479   94.2283   -1.7833 C.ar    1  UNL1        0.0095
     31 C          61.4486   87.6107    9.7447 C.3     1  UNL1        0.0610
     32 C          61.6413   89.0982    9.7424 C.3     1  UNL1        0.0374
     33 C          61.0849   89.9248    8.6210 C.3     1  UNL1        0.0919
     34 N          60.3361   89.2638    7.5021 N.pl3   1  UNL1       -0.3103
     35 C          60.1434   87.7762    7.5044 C.3     1  UNL1        0.0919
     36 C          60.6997   86.9497    8.6257 C.3     1  UNL1        0.0374
     37 C          63.6738   84.3045   14.2300 C.2     1  UNL1        0.2559
     38 O          64.3920   84.9690   15.3668 O.2     1  UNL1       -0.2721
     39 N          63.1175   85.1310   13.1086 N.am    1  UNL1       -0.2746
     40 C          62.3992   84.4664   11.9718 C.3     1  UNL1        0.1108
     41 C          61.8429   85.2930   10.8504 C.3     1  UNL1        0.0939
     42 N          62.0049   86.7841   10.8660 N.3     1  UNL1       -0.2710
     43 C          62.7232   87.4487   12.0028 C.3     1  UNL1        0.0939
     44 C          63.2794   86.6221   13.1241 C.3     1  UNL1        0.1108
     45 C          63.5118   82.8133   14.2144 C.3     1  UNL1        0.2272
     46 C          61.5726   81.0897   14.0785 C.3     1  UNL1        0.1748
     47 O          62.2874   82.1857   14.8119 O.3     1  UNL1       -0.3417
@<TRIPOS>BOND
     1    46    47    1
     2    47    45    1
     3    45    37    1
     4    37    38    2
     5    37    39   am
     6    39    40    1
     7    40    41    1
     8    41    42    1
     9    42    31    1
    10    31    32    1
    11    32    33    1
    12    33    34    1
    13    34     1    1
    14     1     2    2
    15     2     3    1
    16     3     4    1
    17     3     5    2
    18     5     6    1
    19     6     7    2
    20     7    11    1
    21    11    12    1
    22    12    18    1
    23    18    20    1
    24    20    21    1
    25    21    22    1
    26    21    24    1
    27    24    25   ar
    28    25    26   ar
    29    26    27   ar
    30    27    28   ar
    31    28    29    1
    32    28    30   ar
    33    12    13    2
    34    13    14    1
    35    14    15    2
    36    15    16    1
    37    16    17    2
    38     7     8    1
    39     8     9    2
    40     9    10    1
    41    34    35    1
    42    35    36    1
    43    42    43    1
    44    43    44    1
    45    44    39    1
    46    36    31    1
    47    10     1    1
    48     9     5    1
    49    16    11    1
    50    30    24   ar
    51    18    19    1
    52    22    23    1
@<TRIPOS>MOLECULE
*****
 47 52 0 0 0
SMALL
GASTEIGER

@<TRIPOS>ATOM
      1 C          59.8082   89.9223    6.4424 C.2     1  UNL1        0.0332
      2 C          58.3257   90.1227    6.3335 C.2     1  UNL1        0.0101
      3 C          57.7638   90.9884    5.2449 C.2     1  UNL1        0.0255
      4 C          56.2812   91.1888    5.1360 C.3     1  UNL1        0.0351
      5 C          58.6846   91.6536    4.2653 C.2     1  UNL1        0.2278
      6 N          58.4235   92.5562    3.0960 N.2     1  UNL1       -0.0345
      7 C          59.7447   92.9135    2.4823 C.2     1  UNL1        0.3649
      8 N          60.8223   92.2319    3.2723 N.2     1  UNL1       -0.0380
      9 C          60.1671   91.4532    4.3742 C.2     1  UNL1        0.2184
     10 C          60.7289   90.5875    5.4628 C.3     1  UNL1        0.1186
     11 C          59.9520   93.7974    1.2882 C.3     1  UNL1        0.2250
     12 C          61.1729   94.6643    1.1996 C.2     1  UNL1        0.0436
     13 C          61.3801   95.5481    0.0055 C.2     1  UNL1        0.0288
     14 C          60.3664   95.5652   -1.1000 C.2     1  UNL1        0.0896
     15 N          59.1454   94.6983   -1.0114 N.am    1  UNL1       -0.1770
     16 C          58.9382   93.8145    0.1828 C.2     1  UNL1        0.2627
     17 O          57.7173   92.9476    0.2714 O.2     1  UNL1       -0.2719
     18 N          62.1866   94.6473    2.3050 N.pl3   1  UNL1       -0.3329
     19 H          61.9027   94.4684    3.2306 H       1  UNL1        0.1466
     20 C          63.6329   94.9029    2.0004 C.3     1  UNL1        0.1211
     21 C          64.3660   94.0128    1.0411 C.3     1  UNL1        0.1522
     22 O          65.0181   92.7549    1.5338 O.3     1  UNL1       -0.3783
     23 H          64.8720   92.6677    2.4888 H       1  UNL1        0.2109
     24 C          64.4470   94.3805   -0.4109 C.ar    1  UNL1        0.0067
     25 C          65.0961   95.6683   -0.8234 C.ar    1  UNL1       -0.0018
     26 C          65.1771   96.0360   -2.2754 C.ar    1  UNL1        0.0006
     27 C          64.6091   95.1158   -3.3149 C.ar    1  UNL1        0.0114
     28 C          63.9601   93.8280   -2.9024 C.ar    1  UNL1        0.0574
     29 CL         63.3920   92.9078   -3.9419 Cl      1  UNL1       -0.0823
     30 C          63.8790   93.4603   -1.4504 C.ar    1  UNL1        0.0095
     31 C          61.4938   87.3252    9.7080 C.3     1  UNL1        0.0610
     32 C          61.6674   88.8138    9.7689 C.3     1  UNL1        0.0374
     33 C          61.1055   89.6795    8.6803 C.3     1  UNL1        0.0919
     34 N          60.3701   89.0566    7.5310 N.pl3   1  UNL1       -0.3103
     35 C          60.1965   87.5679    7.4702 C.3     1  UNL1        0.0919
     36 C          60.7583   86.7022    8.5587 C.3     1  UNL1        0.0374
     37 C          63.7412   83.8623   14.0621 C.2     1  UNL1        0.2559
     38 O          64.3320   84.4898   15.2897 O.2     1  UNL1       -0.2721
     39 N          63.1793   84.7280   12.9735 N.am    1  UNL1       -0.2746
     40 C          62.5885   84.1005   11.7460 C.3     1  UNL1        0.1108
     41 C          62.0266   84.9662   10.6574 C.3     1  UNL1        0.0939
     42 N          62.0556   86.4594   10.7965 N.3     1  UNL1       -0.2710
     43 C          62.6465   87.0870   12.0242 C.3     1  UNL1        0.0939
     44 C          63.2083   86.2213   13.1127 C.3     1  UNL1        0.1108
     45 C          63.7122   82.3691   13.9230 C.3     1  UNL1        0.2272
     46 C          61.3692   81.2578   14.0813 C.3     1  UNL1        0.1748
     47 O          62.7056   81.5638   14.6899 O.3     1  UNL1       -0.3417
@<TRIPOS>BOND
     1    46    47    1
     2    47    45    1
     3    45    37    1
     4    37    38    2
     5    37    39   am
     6    39    40    1
     7    40    41    1
     8    41    42    1
     9    42    31    1
    10    31    32    1
    11    32    33    1
    12    33    34    1
    13    34     1    1
    14     1     2    2
    15     2     3    1
    16     3     4    1
    17     3     5    2
    18     5     6    1
    19     6     7    2
    20     7    11    1
    21    11    12    1
    22    12    18    1
    23    18    20    1
    24    20    21    1
    25    21    22    1
    26    21    24    1
    27    24    25   ar
    28    25    26   ar
    29    26    27   ar
    30    27    28   ar
    31    28    29    1
    32    28    30   ar
    33    12    13    2
    34    13    14    1
    35    14    15    2
    36    15    16    1
    37    16    17    2
    38     7     8    1
    39     8     9    2
    40     9    10    1
    41    34    35    1
    42    35    36    1
    43    42    43    1
    44    43    44    1
    45    44    39    1
    46    36    31    1
    47    10     1    1
    48     9     5    1
    49    16    11    1
    50    30    24   ar
    51    18    19    1
    52    22    23    1
@<TRIPOS>MOLECULE
*****
 47 52 0 0 0
SMALL
GASTEIGER

@<TRIPOS>ATOM
      1 C          59.8080   90.0456    6.4294 C.2     1  UNL1        0.0332
      2 C          58.3247   90.2168    6.2875 C.2     1  UNL1        0.0101
      3 C          57.7695   91.0561    5.1751 C.2     1  UNL1        0.0255
      4 C          56.2860   91.2272    5.0332 C.3     1  UNL1        0.0351
      5 C          58.6978   91.7242    4.2046 C.2     1  UNL1        0.2278
      6 N          58.4443   92.6048    3.0171 N.2     1  UNL1       -0.0345
      7 C          59.7710   92.9778    2.4251 C.2     1  UNL1        0.3649
      8 N          60.8445   92.3278    3.2467 N.2     1  UNL1       -0.0380
      9 C          60.1812   91.5530    4.3465 C.2     1  UNL1        0.2184
     10 C          60.7363   90.7137    5.4589 C.3     1  UNL1        0.1186
     11 C          59.9865   93.8481    1.2225 C.3     1  UNL1        0.2250
     12 C          59.0763   93.7272    0.0364 C.2     1  UNL1        0.0436
     13 C          59.2918   94.5976   -1.1662 C.2     1  UNL1        0.0288
     14 C          60.4175   95.5888   -1.1826 C.2     1  UNL1        0.0896
     15 N          61.3278   95.7097    0.0035 N.am    1  UNL1       -0.1770
     16 C          61.1122   94.8393    1.2060 C.2     1  UNL1        0.2627
     17 O          62.0224   94.9602    2.3922 O.2     1  UNL1       -0.2719
     18 N          57.9506   92.7361    0.0527 N.pl3   1  UNL1       -0.3329
     19 H          57.4680   92.5530    0.8911 H       1  UNL1        0.1466
     20 C          57.5600   92.0238   -1.2082 C.3     1  UNL1        0.1211
     21 C          56.5230   92.6178   -2.1147 C.3     1  UNL1        0.1522
     22 O          55.2760   93.2178   -1.5361 O.3     1  UNL1       -0.3783
     23 H          55.2983   93.1401   -0.5694 H       1  UNL1        0.2109
     24 C          56.7331   92.6118   -3.5999 C.ar    1  UNL1        0.0067
     25 C          57.7936   93.4789   -4.2109 C.ar    1  UNL1       -0.0018
     26 C          58.0037   93.4729   -5.6961 C.ar    1  UNL1        0.0006
     27 C          57.1532   92.5998   -6.5704 C.ar    1  UNL1        0.0114
     28 C          56.0927   91.7327   -5.9594 C.ar    1  UNL1        0.0574
     29 CL         55.2422   90.8596   -6.8337 Cl      1  UNL1       -0.0823
     30 C          55.8826   91.7387   -4.4742 C.ar    1  UNL1        0.0095
     31 C          61.4736   87.5278    9.7666 C.3     1  UNL1        0.0610
     32 C          60.7355   86.8784    8.6337 C.3     1  UNL1        0.0374
     33 C          60.1803   87.7177    7.5213 C.3     1  UNL1        0.0919
     34 N          60.3632   89.2063    7.5418 N.pl3   1  UNL1       -0.3103
     35 C          61.1013   89.8557    8.6747 C.3     1  UNL1        0.0919
     36 C          61.6565   89.0165    9.7871 C.3     1  UNL1        0.0374
     37 C          63.6944   84.1710   14.2163 C.2     1  UNL1        0.2559
     38 O          64.4015   84.8235   15.3669 O.2     1  UNL1       -0.2721
     39 N          63.1392   85.0102   13.1038 N.am    1  UNL1       -0.2746
     40 C          62.4321   84.3576   11.9532 C.3     1  UNL1        0.1108
     41 C          61.8769   85.1968   10.8407 C.3     1  UNL1        0.0939
     42 N          62.0288   86.6886   10.8790 N.3     1  UNL1       -0.2710
     43 C          62.7359   87.3412   12.0297 C.3     1  UNL1        0.0939
     44 C          63.2911   86.5019   13.1421 C.3     1  UNL1        0.1108
     45 C          63.5425   82.6792   14.1780 C.3     1  UNL1        0.2272
     46 C          61.4700   81.1145   14.0991 C.3     1  UNL1        0.1748
     47 O          62.3813   82.0256   14.8668 O.3     1  UNL1       -0.3417
@<TRIPOS>BOND
     1    46    47    1
     2    47    45    1
     3    45    37    1
     4    37    38    2
     5    37    39   am
     6    39    40    1
     7    40    41    1
     8    41    42    1
     9    42    31    1
    10    31    32    1
    11    32    33    1
    12    33    34    1
    13    34     1    1
    14     1     2    2
    15     2     3    1
    16     3     4    1
    17     3     5    2
    18     5     6    1
    19     6     7    2
    20     7    11    1
    21    11    12    1
    22    12    18    1
    23    18    20    1
    24    20    21    1
    25    21    22    1
    26    21    24    1
    27    24    25   ar
    28    25    26   ar
    29    26    27   ar
    30    27    28   ar
    31    28    29    1
    32    28    30   ar
    33    12    13    2
    34    13    14    1
    35    14    15    2
    36    15    16    1
    37    16    17    2
    38     7     8    1
    39     8     9    2
    40     9    10    1
    41    34    35    1
    42    35    36    1
    43    42    43    1
    44    43    44    1
    45    44    39    1
    46    36    31    1
    47    10     1    1
    48     9     5    1
    49    16    11    1
    50    30    24   ar
    51    18    19    1
    52    22    23    1
@<TRIPOS>MOLECULE
*****
 47 52 0 0 0
SMALL
GASTEIGER

@<TRIPOS>ATOM
      1 C          59.8283   89.7341    6.5977 C.2     1  UNL1        0.0332
      2 C          58.3542   89.9333    6.4052 C.2     1  UNL1        0.0101
      3 C          57.8568   90.9101    5.3812 C.2     1  UNL1        0.0255
      4 C          56.3826   91.1094    5.1887 C.3     1  UNL1        0.0351
      5 C          58.8337   91.6877    4.5498 C.2     1  UNL1        0.2278
      6 N          58.6414   92.7125    3.4715 N.2     1  UNL1       -0.0345
      7 C          59.9967   93.1466    2.9977 C.2     1  UNL1        0.3649
      8 N          61.0267   92.3901    3.7831 N.2     1  UNL1       -0.0380
      9 C          60.3078   91.4884    4.7423 C.2     1  UNL1        0.2184
     10 C          60.8052   90.5116    5.7663 C.3     1  UNL1        0.1186
     11 C          60.2736   94.1595    1.9265 C.3     1  UNL1        0.2250
     12 C          60.7814   93.7148    0.5870 C.2     1  UNL1        0.0436
     13 C          61.0583   94.7277   -0.4842 C.2     1  UNL1        0.0288
     14 C          60.8272   96.1853   -0.2159 C.2     1  UNL1        0.0896
     15 N          60.3194   96.6301    1.1236 N.am    1  UNL1       -0.1770
     16 C          60.0426   95.6171    2.1948 C.2     1  UNL1        0.2627
     17 O          59.5347   96.0618    3.5343 O.2     1  UNL1       -0.2719
     18 N          61.0125   92.2572    0.3186 N.pl3   1  UNL1       -0.3329
     19 H          60.2633   91.6837    0.0376 H       1  UNL1        0.1466
     20 C          62.3849   91.6735    0.4784 C.3     1  UNL1        0.1211
     21 C          63.3554   92.2915    1.4407 C.3     1  UNL1        0.1522
     22 O          63.6671   91.6041    2.7370 O.3     1  UNL1       -0.3783
     23 H          63.1607   90.7788    2.7952 H       1  UNL1        0.2109
     24 C          64.0143   93.5970    1.1067 C.ar    1  UNL1        0.0067
     25 C          64.3478   93.9260   -0.3182 C.ar    1  UNL1       -0.0018
     26 C          65.0067   95.2315   -0.6522 C.ar    1  UNL1        0.0006
     27 C          65.3321   96.2081    0.4388 C.ar    1  UNL1        0.0114
     28 C          64.9986   95.8791    1.8638 C.ar    1  UNL1        0.0574
     29 CL         65.3241   96.8558    2.9548 Cl      1  UNL1       -0.0823
     30 C          64.3398   94.5736    2.1977 C.ar    1  UNL1        0.0095
     31 C          61.3206   86.8038    9.6696 C.3     1  UNL1        0.0610
     32 C          60.5830   86.3116    8.4598 C.3     1  UNL1        0.0374
     33 C          60.0856   87.2884    7.4359 C.3     1  UNL1        0.0919
     34 N          60.3258   88.7572    7.6217 N.pl3   1  UNL1       -0.3103
     35 C          61.0634   89.2494    8.8315 C.3     1  UNL1        0.0919
     36 C          61.5608   88.2727    9.8555 C.3     1  UNL1        0.0374
     37 C          63.3104   82.8968   13.7656 C.2     1  UNL1        0.2559
     38 O          63.3791   83.2946   15.2102 O.2     1  UNL1       -0.2721
     39 N          62.8129   83.8736   12.7416 N.am    1  UNL1       -0.2746
     40 C          62.7442   83.4758   11.2970 C.3     1  UNL1        0.1108
     41 C          62.2468   84.4526   10.2729 C.3     1  UNL1        0.0939
     42 N          61.8181   85.8270   10.6936 N.3     1  UNL1       -0.2710
     43 C          61.8868   86.2248   12.1383 C.3     1  UNL1        0.0939
     44 C          62.3842   85.2480   13.1623 C.3     1  UNL1        0.1108
     45 C          63.7391   81.5224   13.3449 C.3     1  UNL1        0.2272
     46 C          61.3630   80.5820   13.8140 C.3     1  UNL1        0.1748
     47 O          62.7195   80.4329   13.1914 O.3     1  UNL1       -0.3417
@<TRIPOS>BOND
     1    46    47    1
     2    47    45    1
     3    45    37    1
     4    37    38    2
     5    37    39   am
     6    39    40    1
     7    40    41    1
     8    41    42    1
     9    42    31    1
    10    31    32    1
    11    32    33    1
    12    33    34    1
    13    34     1    1
    14     1     2    2
    15     2     3    1
    16     3     4    1
    17     3     5    2
    18     5     6    1
    19     6     7    2
    20     7    11    1
    21    11    12    1
    22    12    18    1
    23    18    20    1
    24    20    21    1
    25    21    22    1
    26    21    24    1
    27    24    25   ar
    28    25    26   ar
    29    26    27   ar
    30    27    28   ar
    31    28    29    1
    32    28    30   ar
    33    12    13    2
    34    13    14    1
    35    14    15    2
    36    15    16    1
    37    16    17    2
    38     7     8    1
    39     8     9    2
    40     9    10    1
    41    34    35    1
    42    35    36    1
    43    42    43    1
    44    43    44    1
    45    44    39    1
    46    36    31    1
    47    10     1    1
    48     9     5    1
    49    16    11    1
    50    30    24   ar
    51    18    19    1
    52    22    23    1
@<TRIPOS>MOLECULE
*****
 47 52 0 0 0
SMALL
GASTEIGER

@<TRIPOS>ATOM
      1 C          60.2208   89.9572    6.8333 C.2     1  UNL1        0.0332
      2 C          59.3592   88.7621    7.1144 C.2     1  UNL1        0.0101
      3 C          59.5715   87.9618    8.3652 C.2     1  UNL1        0.0255
      4 C          58.7098   86.7667    8.6463 C.3     1  UNL1        0.0351
      5 C          60.6457   88.3568    9.3349 C.2     1  UNL1        0.2278
      6 N          61.0858   87.7649   10.6410 N.2     1  UNL1       -0.0345
      7 C          62.2195   88.5943   11.1671 C.2     1  UNL1        0.3649
      8 N          62.4801   89.6988   10.1861 N.2     1  UNL1       -0.0380
      9 C          61.5074   89.5520    9.0537 C.2     1  UNL1        0.2184
     10 C          61.2949   90.3522    7.8029 C.3     1  UNL1        0.1186
     11 C          62.9623   88.3604   12.4491 C.3     1  UNL1        0.2250
     12 C          63.4524   89.5263   13.2554 C.2     1  UNL1        0.0436
     13 C          64.1952   89.2923   14.5375 C.2     1  UNL1        0.0288
     14 C          64.4479   87.8923   15.0131 C.2     1  UNL1        0.0896
     15 N          63.9578   86.7263   14.2068 N.am    1  UNL1       -0.1770
     16 C          63.2150   86.9604   12.9247 C.2     1  UNL1        0.2627
     17 O          62.7248   85.7944   12.1184 O.2     1  UNL1       -0.2719
     18 N          63.1998   90.9263   12.7799 N.pl3   1  UNL1       -0.3329
     19 H          62.4233   91.4284   13.1178 H       1  UNL1        0.1466
     20 C          64.1303   91.5614   11.7894 C.3     1  UNL1        0.1211
     21 C          65.2475   92.4409   12.2671 C.3     1  UNL1        0.1522
     22 O          65.4785   92.6281   13.7373 O.3     1  UNL1       -0.3783
     23 H          64.8230   92.1152   14.2355 H       1  UNL1        0.2109
     24 C          66.1337   93.1332   11.2745 C.ar    1  UNL1        0.0067
     25 C          66.0374   94.6188   11.0912 C.ar    1  UNL1       -0.0018
     26 C          66.9237   95.3112   10.0987 C.ar    1  UNL1        0.0006
     27 C          67.9063   94.5179    9.2893 C.ar    1  UNL1        0.0114
     28 C          68.0027   93.0322    9.4726 C.ar    1  UNL1        0.0574
     29 CL         68.9853   92.2389    8.6632 Cl      1  UNL1       -0.0823
     30 C          67.1164   92.3399   10.4652 C.ar    1  UNL1        0.0095
     31 C          59.5838   92.3580    3.0808 C.3     1  UNL1        0.0610
     32 C          58.4150   92.0022    3.9509 C.3     1  UNL1        0.0374
     33 C          58.6274   91.2019    5.2018 C.3     1  UNL1        0.0919
     34 N          60.0084   90.7575    5.5824 N.pl3   1  UNL1       -0.3103
     35 C          61.1773   91.1133    4.7123 C.3     1  UNL1        0.0919
     36 C          60.9650   91.9136    3.4615 C.3     1  UNL1        0.0374
     37 C          58.7347   95.5590   -1.9224 C.2     1  UNL1        0.2559
     38 O          59.4631   96.8559   -2.1157 O.2     1  UNL1       -0.2721
     39 N          58.9469   94.7587   -0.6716 N.am    1  UNL1       -0.2746
     40 C          58.2185   93.4619   -0.4783 C.3     1  UNL1        0.1108
     41 C          58.4308   92.6615    0.7725 C.3     1  UNL1        0.0939
     42 N          59.3715   93.1582    1.8300 N.3     1  UNL1       -0.2710
     43 C          60.1000   94.4552    1.6367 C.3     1  UNL1        0.0939
     44 C          59.8877   95.2554    0.3859 C.3     1  UNL1        0.1108
     45 C          57.7939   95.0624   -2.9799 C.3     1  UNL1        0.2272
     46 C          57.9267   92.6331   -3.8915 C.3     1  UNL1        0.1748
     47 O          58.2746   94.0871   -4.0133 O.3     1  UNL1       -0.3417
@<TRIPOS>BOND
     1    46    47    1
     2    47    45    1
     3    45    37    1
     4    37    38    2
     5    37    39   am
     6    39    40    1
     7    40    41    1
     8    41    42    1
     9    42    31    1
    10    31    32    1
    11    32    33    1
    12    33    34    1
    13    34     1    1
    14     1     2    2
    15     2     3    1
    16     3     4    1
    17     3     5    2
    18     5     6    1
    19     6     7    2
    20     7    11    1
    21    11    12    1
    22    12    18    1
    23    18    20    1
    24    20    21    1
    25    21    22    1
    26    21    24    1
    27    24    25   ar
    28    25    26   ar
    29    26    27   ar
    30    27    28   ar
    31    28    29    1
    32    28    30   ar
    33    12    13    2
    34    13    14    1
    35    14    15    2
    36    15    16    1
    37    16    17    2
    38     7     8    1
    39     8     9    2
    40     9    10    1
    41    34    35    1
    42    35    36    1
    43    42    43    1
    44    43    44    1
    45    44    39    1
    46    36    31    1
    47    10     1    1
    48     9     5    1
    49    16    11    1
    50    30    24   ar
    51    18    19    1
    52    22    23    1
@<TRIPOS>MOLECULE
*****
 47 52 0 0 0
SMALL
GASTEIGER

@<TRIPOS>ATOM
      1 C          59.8161   89.8660    6.3489 C.2     1  UNL1        0.0332
      2 C          58.3476   90.1179    6.1766 C.2     1  UNL1        0.0101
      3 C          57.8720   91.1225    5.1693 C.2     1  UNL1        0.0255
      4 C          56.4033   91.3744    4.9971 C.3     1  UNL1        0.0351
      5 C          58.8650   91.8752    4.3343 C.2     1  UNL1        0.2278
      6 N          58.6953   92.9180    3.2696 N.2     1  UNL1       -0.0345
      7 C          60.0591   93.3106    2.7838 C.2     1  UNL1        0.3649
      8 N          61.0717   92.5105    3.5483 N.2     1  UNL1       -0.0380
      9 C          60.3337   91.6233    4.5066 C.2     1  UNL1        0.2184
     10 C          60.8092   90.6187    5.5139 C.3     1  UNL1        0.1186
     11 C          60.3579   94.3252    1.7202 C.3     1  UNL1        0.2250
     12 C          60.8011   93.8767    0.3591 C.2     1  UNL1        0.0436
     13 C          61.0998   94.8914   -0.7045 C.2     1  UNL1        0.0288
     14 C          60.9555   96.3545   -0.4071 C.2     1  UNL1        0.0896
     15 N          60.5123   96.8030    0.9540 N.am    1  UNL1       -0.1770
     16 C          60.2136   95.7883    2.0176 C.2     1  UNL1        0.2627
     17 O          59.7704   96.2368    3.3786 O.2     1  UNL1       -0.2719
     18 N          60.9454   92.4137    0.0616 N.pl3   1  UNL1       -0.3329
     19 H          61.7949   91.9541    0.2522 H       1  UNL1        0.1466
     20 C          59.7955   91.6508   -0.5264 C.3     1  UNL1        0.1211
     21 C          58.5493   92.3748   -0.9419 C.3     1  UNL1        0.1522
     22 O          57.5376   92.7789    0.0892 O.3     1  UNL1       -0.3783
     23 H          57.8407   92.4985    0.9669 H       1  UNL1        0.2109
     24 C          58.3148   92.6948   -2.3885 C.ar    1  UNL1        0.0067
     25 C          59.1995   93.6813   -3.0914 C.ar    1  UNL1       -0.0018
     26 C          58.9650   94.0013   -4.5380 C.ar    1  UNL1        0.0006
     27 C          57.8458   93.3347   -5.2817 C.ar    1  UNL1        0.0114
     28 C          56.9612   92.3482   -4.5788 C.ar    1  UNL1        0.0574
     29 CL         55.8420   91.6816   -5.3225 Cl      1  UNL1       -0.0823
     30 C          57.1956   92.0282   -3.1322 C.ar    1  UNL1        0.0095
     31 C          61.2430   86.8521    9.3706 C.3     1  UNL1        0.0610
     32 C          61.4207   88.3183    9.6323 C.3     1  UNL1        0.0374
     33 C          60.9450   89.3230    8.6250 C.3     1  UNL1        0.0919
     34 N          60.2918   88.8614    7.3562 N.pl3   1  UNL1       -0.3103
     35 C          60.1141   87.3951    7.0944 C.3     1  UNL1        0.0919
     36 C          60.5897   86.3905    8.1016 C.3     1  UNL1        0.0374
     37 C          63.1454   82.8334   13.3994 C.2     1  UNL1        0.2559
     38 O          63.6956   81.5152   12.9416 O.2     1  UNL1       -0.2721
     39 N          62.6698   83.8381   12.3922 N.am    1  UNL1       -0.2746
     40 C          62.1195   85.1562   12.8499 C.3     1  UNL1        0.1108
     41 C          61.6439   86.1610   11.8427 C.3     1  UNL1        0.0939
     42 N          61.7186   85.8474   10.3778 N.3     1  UNL1       -0.2710
     43 C          62.2688   84.5292    9.9200 C.3     1  UNL1        0.0939
     44 C          62.7444   83.5245   10.9272 C.3     1  UNL1        0.1108
     45 C          63.0707   83.1469   14.8643 C.3     1  UNL1        0.2272
     46 C          65.1468   84.6953   14.6587 C.3     1  UNL1        0.1748
     47 O          64.1398   83.9787   15.5087 O.3     1  UNL1       -0.3417
@<TRIPOS>BOND
     1    46    47    1
     2    47    45    1
     3    45    37    1
     4    37    38    2
     5    37    39   am
     6    39    40    1
     7    40    41    1
     8    41    42    1
     9    42    31    1
    10    31    32    1
    11    32    33    1
    12    33    34    1
    13    34     1    1
    14     1     2    2
    15     2     3    1
    16     3     4    1
    17     3     5    2
    18     5     6    1
    19     6     7    2
    20     7    11    1
    21    11    12    1
    22    12    18    1
    23    18    20    1
    24    20    21    1
    25    21    22    1
    26    21    24    1
    27    24    25   ar
    28    25    26   ar
    29    26    27   ar
    30    27    28   ar
    31    28    29    1
    32    28    30   ar
    33    12    13    2
    34    13    14    1
    35    14    15    2
    36    15    16    1
    37    16    17    2
    38     7     8    1
    39     8     9    2
    40     9    10    1
    41    34    35    1
    42    35    36    1
    43    42    43    1
    44    43    44    1
    45    44    39    1
    46    36    31    1
    47    10     1    1
    48     9     5    1
    49    16    11    1
    50    30    24   ar
    51    18    19    1
    52    22    23    1
@<TRIPOS>MOLECULE
*****
 47 52 0 0 0
SMALL
GASTEIGER

@<TRIPOS>ATOM
      1 C          60.2155   89.9719    6.7874 C.2     1  UNL1        0.0332
      2 C          59.3635   88.7671    7.0563 C.2     1  UNL1        0.0101
      3 C          59.5764   87.9611    8.3033 C.2     1  UNL1        0.0255
      4 C          58.7243   86.7562    8.5722 C.3     1  UNL1        0.0351
      5 C          60.6415   88.3600    9.2814 C.2     1  UNL1        0.2278
      6 N          61.0799   87.7641   10.5862 N.2     1  UNL1       -0.0345
      7 C          62.2029   88.6007   11.1237 C.2     1  UNL1        0.3649
      8 N          62.4586   89.7136   10.1511 N.2     1  UNL1       -0.0380
      9 C          61.4935   89.5648    9.0124 C.2     1  UNL1        0.2184
     10 C          61.2805   90.3708    7.7654 C.3     1  UNL1        0.1186
     11 C          62.9408   88.3656   12.4084 C.3     1  UNL1        0.2250
     12 C          63.4192   89.5311   13.2225 C.2     1  UNL1        0.0436
     13 C          64.1571   89.2959   14.5072 C.2     1  UNL1        0.0288
     14 C          64.4166   87.8955   14.9777 C.2     1  UNL1        0.0896
     15 N          63.9382   86.7300   14.1635 N.am    1  UNL1       -0.1770
     16 C          63.2003   86.9652   12.8788 C.2     1  UNL1        0.2627
     17 O          62.7219   85.7997   12.0646 O.2     1  UNL1       -0.2719
     18 N          63.1598   90.9315   12.7522 N.pl3   1  UNL1       -0.3329
     19 H          62.3827   91.4297   13.0944 H       1  UNL1        0.1466
     20 C          64.0843   91.5730   11.7603 C.3     1  UNL1        0.1211
     21 C          65.2433   92.3963   12.2389 C.3     1  UNL1        0.1522
     22 O          65.5286   92.5075   13.7073 O.3     1  UNL1       -0.3783
     23 H          64.8746   91.9911   14.2038 H       1  UNL1        0.2109
     24 C          66.1169   93.1082   11.2490 C.ar    1  UNL1        0.0067
     25 C          65.9083   94.5689   10.9789 C.ar    1  UNL1       -0.0018
     26 C          66.7819   95.2808    9.9891 C.ar    1  UNL1        0.0006
     27 C          67.8642   94.5322    9.2693 C.ar    1  UNL1        0.0114
     28 C          68.0729   93.0716    9.5394 C.ar    1  UNL1        0.0574
     29 CL         69.1552   92.3229    8.8196 Cl      1  UNL1       -0.0823
     30 C          67.1992   92.3596   10.5292 C.ar    1  UNL1        0.0095
     31 C          59.5768   92.3900    3.0463 C.3     1  UNL1        0.0610
     32 C          58.4086   92.0318    3.9163 C.3     1  UNL1        0.0374
     33 C          58.6215   91.2257    5.1634 C.3     1  UNL1        0.0919
     34 N          60.0025   90.7780    5.5403 N.pl3   1  UNL1       -0.3103
     35 C          61.1708   91.1362    4.6703 C.3     1  UNL1        0.0919
     36 C          60.9579   91.9422    3.4233 C.3     1  UNL1        0.0374
     37 C          58.7253   95.6140   -1.9417 C.2     1  UNL1        0.2559
     38 O          57.7036   95.1796   -2.9503 O.2     1  UNL1       -0.2721
     39 N          58.9382   94.8080   -0.6947 N.am    1  UNL1       -0.2746
     40 C          59.9599   95.2425    0.3139 C.3     1  UNL1        0.1108
     41 C          60.1728   94.4365    1.5609 C.3     1  UNL1        0.0939
     42 N          59.3639   93.1960    1.7993 N.3     1  UNL1       -0.2710
     43 C          58.3422   92.7615    0.7907 C.3     1  UNL1        0.0939
     44 C          58.1293   93.5675   -0.4563 C.3     1  UNL1        0.1108
     45 C          59.5342   96.8545   -2.1801 C.3     1  UNL1        0.2272
     46 C          61.2941   95.4781   -3.5060 C.3     1  UNL1        0.1748
     47 O          60.8727   96.7598   -2.8505 O.3     1  UNL1       -0.3417
@<TRIPOS>BOND
     1    46    47    1
     2    47    45    1
     3    45    37    1
     4    37    38    2
     5    37    39   am
     6    39    40    1
     7    40    41    1
     8    41    42    1
     9    42    31    1
    10    31    32    1
    11    32    33    1
    12    33    34    1
    13    34     1    1
    14     1     2    2
    15     2     3    1
    16     3     4    1
    17     3     5    2
    18     5     6    1
    19     6     7    2
    20     7    11    1
    21    11    12    1
    22    12    18    1
    23    18    20    1
    24    20    21    1
    25    21    22    1
    26    21    24    1
    27    24    25   ar
    28    25    26   ar
    29    26    27   ar
    30    27    28   ar
    31    28    29    1
    32    28    30   ar
    33    12    13    2
    34    13    14    1
    35    14    15    2
    36    15    16    1
    37    16    17    2
    38     7     8    1
    39     8     9    2
    40     9    10    1
    41    34    35    1
    42    35    36    1
    43    42    43    1
    44    43    44    1
    45    44    39    1
    46    36    31    1
    47    10     1    1
    48     9     5    1
    49    16    11    1
    50    30    24   ar
    51    18    19    1
    52    22    23    1
@<TRIPOS>MOLECULE
*****
 47 52 0 0 0
SMALL
GASTEIGER

@<TRIPOS>ATOM
      1 C          59.9958   91.8854    3.2503 C.2     1  UNL1        0.0332
      2 C          58.5524   92.0568    3.6204 C.2     1  UNL1        0.0101
      3 C          58.0154   91.4130    4.8644 C.2     1  UNL1        0.0255
      4 C          56.5719   91.5844    5.2344 C.3     1  UNL1        0.0351
      5 C          58.9221   90.5979    5.7381 C.2     1  UNL1        0.2278
      6 N          58.6791   89.8498    7.0153 N.2     1  UNL1       -0.0345
      7 C          59.9724   89.2160    7.4345 C.2     1  UNL1        0.3649
      8 N          61.0147   89.5725    6.4165 N.2     1  UNL1       -0.0380
      9 C          60.3656   90.4265    5.3680 C.2     1  UNL1        0.2184
     10 C          60.9024   91.0703    4.1241 C.3     1  UNL1        0.1186
     11 C          60.1859   88.3737    8.6572 C.3     1  UNL1        0.2250
     12 C          60.3734   89.0268    9.9945 C.2     1  UNL1        0.0436
     13 C          60.5869   88.1844   11.2172 C.2     1  UNL1        0.0288
     14 C          60.6130   86.6890   11.1025 C.2     1  UNL1        0.0896
     15 N          60.4255   86.0359    9.7653 N.am    1  UNL1       -0.1770
     16 C          60.2119   86.8784    8.5426 C.2     1  UNL1        0.2627
     17 O          60.0244   86.2253    7.2053 O.2     1  UNL1       -0.2719
     18 N          60.3474   90.5221   10.1092 N.pl3   1  UNL1       -0.3329
     19 H          59.7639   91.0511    9.5184 H       1  UNL1        0.1466
     20 C          61.2102   91.2117   11.1241 C.3     1  UNL1        0.1211
     21 C          62.6986   91.2495   10.9415 C.3     1  UNL1        0.1522
     22 O          63.2813   91.5536    9.5931 O.3     1  UNL1       -0.3783
     23 H          62.5642   91.6997    8.9565 H       1  UNL1        0.2109
     24 C          63.6042   90.9831   12.1071 C.ar    1  UNL1        0.0067
     25 C          64.6488   91.9889   12.4906 C.ar    1  UNL1       -0.0018
     26 C          65.5544   91.7225   13.6563 C.ar    1  UNL1        0.0006
     27 C          65.4155   90.4502   14.4386 C.ar    1  UNL1        0.0114
     28 C          64.3709   89.4444   14.0551 C.ar    1  UNL1        0.0574
     29 CL         64.2320   88.1721   14.8374 Cl      1  UNL1       -0.0823
     30 C          63.4653   89.7108   12.8894 C.ar    1  UNL1        0.0095
     31 C          61.6063   93.8168   -0.4815 C.3     1  UNL1        0.0610
     32 C          62.5486   93.2105    0.5157 C.3     1  UNL1        0.0374
     33 C          62.0117   92.5667    1.7597 C.3     1  UNL1        0.0919
     34 N          60.5327   92.5292    2.0063 N.pl3   1  UNL1       -0.3103
     35 C          59.5904   93.1355    1.0091 C.3     1  UNL1        0.0919
     36 C          60.1272   93.7793   -0.2348 C.3     1  UNL1        0.0374
     37 C          63.7536   96.3919   -5.4573 C.2     1  UNL1        0.2559
     38 O          62.8114   96.8550   -6.5286 O.2     1  UNL1       -0.2721
     39 N          63.2168   95.7481   -4.2133 N.am    1  UNL1       -0.2746
     40 C          64.1590   95.2850   -3.1420 C.3     1  UNL1        0.1108
     41 C          63.6222   94.6412   -1.8980 C.3     1  UNL1        0.0939
     42 N          62.1432   94.4605   -1.7254 N.3     1  UNL1       -0.2710
     43 C          61.2009   94.9236   -2.7968 C.3     1  UNL1        0.0939
     44 C          61.7378   95.5674   -4.0407 C.3     1  UNL1        0.1108
     45 C          65.2326   96.5725   -5.6299 C.3     1  UNL1        0.2272
     46 C          65.9404   94.1749   -6.3371 C.3     1  UNL1        0.1748
     47 O          65.9984   95.6598   -6.5412 O.3     1  UNL1       -0.3417
@<TRIPOS>BOND
     1    46    47    1
     2    47    45    1
     3    45    37    1
     4    37    38    2
     5    37    39   am
     6    39    40    1
     7    40    41    1
     8    41    42    1
     9    42    31    1
    10    31    32    1
    11    32    33    1
    12    33    34    1
    13    34     1    1
    14     1     2    2
    15     2     3    1
    16     3     4    1
    17     3     5    2
    18     5     6    1
    19     6     7    2
    20     7    11    1
    21    11    12    1
    22    12    18    1
    23    18    20    1
    24    20    21    1
    25    21    22    1
    26    21    24    1
    27    24    25   ar
    28    25    26   ar
    29    26    27   ar
    30    27    28   ar
    31    28    29    1
    32    28    30   ar
    33    12    13    2
    34    13    14    1
    35    14    15    2
    36    15    16    1
    37    16    17    2
    38     7     8    1
    39     8     9    2
    40     9    10    1
    41    34    35    1
    42    35    36    1
    43    42    43    1
    44    43    44    1
    45    44    39    1
    46    36    31    1
    47    10     1    1
    48     9     5    1
    49    16    11    1
    50    30    24   ar
    51    18    19    1
    52    22    23    1
@<TRIPOS>MOLECULE
*****
 47 52 0 0 0
SMALL
GASTEIGER

@<TRIPOS>ATOM
      1 C          60.3230   90.1349    6.8594 C.2     1  UNL1        0.0332
      2 C          59.5460   88.8852    7.1494 C.2     1  UNL1        0.0101
      3 C          59.7977   88.1224    8.4163 C.2     1  UNL1        0.0255
      4 C          59.0206   86.8726    8.7063 C.3     1  UNL1        0.0351
      5 C          60.8265   88.6096    9.3931 C.2     1  UNL1        0.2278
      6 N          61.2895   88.0721   10.7148 N.2     1  UNL1       -0.0345
      7 C          62.3527   88.9898   11.2415 C.2     1  UNL1        0.3649
      8 N          62.5468   90.0944   10.2455 N.2     1  UNL1       -0.0380
      9 C          61.6035   89.8595    9.1031 C.2     1  UNL1        0.2184
     10 C          61.3518   90.6221    7.8362 C.3     1  UNL1        0.1186
     11 C          63.0920   88.8308   12.5370 C.3     1  UNL1        0.2250
     12 C          63.3756   87.4597   13.0753 C.2     1  UNL1        0.0436
     13 C          64.1150   87.3008   14.3707 C.2     1  UNL1        0.0288
     14 C          64.5707   88.5128   15.1278 C.2     1  UNL1        0.0896
     15 N          64.2872   89.8838   14.5895 N.am    1  UNL1       -0.1770
     16 C          63.5478   90.0428   13.2941 C.2     1  UNL1        0.2627
     17 O          63.2643   91.4138   12.7558 O.2     1  UNL1       -0.2719
     18 N          62.9199   86.2476   12.3182 N.pl3   1  UNL1       -0.3329
     19 H          62.2547   86.3384   11.5981 H       1  UNL1        0.1466
     20 C          63.4775   84.8973   12.6583 C.3     1  UNL1        0.1211
     21 C          62.7057   83.9700   13.5496 C.3     1  UNL1        0.1522
     22 O          62.0408   84.4985   14.7860 O.3     1  UNL1       -0.3783
     23 H          62.2067   85.4513   14.8602 H       1  UNL1        0.2109
     24 C          62.5988   82.5142   13.2046 C.ar    1  UNL1        0.0067
     25 C          62.2031   81.5210   14.2567 C.ar    1  UNL1       -0.0018
     26 C          62.0962   80.0652   13.9117 C.ar    1  UNL1        0.0006
     27 C          62.3852   79.6024   12.5144 C.ar    1  UNL1        0.0114
     28 C          62.7809   80.5955   11.4623 C.ar    1  UNL1        0.0574
     29 CL         63.0699   80.1327   10.0650 Cl      1  UNL1       -0.0823
     30 C          62.8878   82.0514   11.8073 C.ar    1  UNL1        0.0095
     31 C          59.5680   92.4231    3.0588 C.3     1  UNL1        0.0610
     32 C          58.4215   92.0566    3.9539 C.3     1  UNL1        0.0374
     33 C          58.6732   91.2939    5.2208 C.3     1  UNL1        0.0919
     34 N          60.0713   90.8977    5.5925 N.pl3   1  UNL1       -0.3103
     35 C          61.2178   91.2641    4.6974 C.3     1  UNL1        0.0919
     36 C          60.9661   92.0268    3.4305 C.3     1  UNL1        0.0374
     37 C          58.5614   95.4739   -2.0087 C.2     1  UNL1        0.2559
     38 O          59.1203   96.8558   -2.1758 O.2     1  UNL1       -0.2721
     39 N          58.8130   94.7112   -0.7418 N.am    1  UNL1       -0.2746
     40 C          58.2541   93.3293   -0.5748 C.3     1  UNL1        0.1108
     41 C          58.5058   92.5665    0.6922 C.3     1  UNL1        0.0939
     42 N          59.3163   93.1858    1.7919 N.3     1  UNL1       -0.2710
     43 C          59.8752   94.5677    1.6248 C.3     1  UNL1        0.0939
     44 C          59.6236   95.3304    0.3580 C.3     1  UNL1        0.1108
     45 C          57.7508   94.8547   -3.1085 C.3     1  UNL1        0.2272
     46 C          55.4082   94.2630   -2.1537 C.3     1  UNL1        0.1748
     47 O          56.2603   95.0221   -3.1271 O.3     1  UNL1       -0.3417
@<TRIPOS>BOND
     1    46    47    1
     2    47    45    1
     3    45    37    1
     4    37    38    2
     5    37    39   am
     6    39    40    1
     7    40    41    1
     8    41    42    1
     9    42    31    1
    10    31    32    1
    11    32    33    1
    12    33    34    1
    13    34     1    1
    14     1     2    2
    15     2     3    1
    16     3     4    1
    17     3     5    2
    18     5     6    1
    19     6     7    2
    20     7    11    1
    21    11    12    1
    22    12    18    1
    23    18    20    1
    24    20    21    1
    25    21    22    1
    26    21    24    1
    27    24    25   ar
    28    25    26   ar
    29    26    27   ar
    30    27    28   ar
    31    28    29    1
    32    28    30   ar
    33    12    13    2
    34    13    14    1
    35    14    15    2
    36    15    16    1
    37    16    17    2
    38     7     8    1
    39     8     9    2
    40     9    10    1
    41    34    35    1
    42    35    36    1
    43    42    43    1
    44    43    44    1
    45    44    39    1
    46    36    31    1
    47    10     1    1
    48     9     5    1
    49    16    11    1
    50    30    24   ar
    51    18    19    1
    52    22    23    1
