@<TRIPOS>MOLECULE
*****
 32 37 0 0 0
SMALL
GASTEIGER

@<TRIPOS>ATOM
      1 N          72.0677   76.1608   12.2548 N.pl3   1  UNL1       -0.3058
      2 C          70.9272   77.0414   11.8380 C.3     1  UNL1        0.0909
      3 C          71.1390   78.1005   10.7971 C.3     1  UNL1        0.0237
      4 C          72.4912   78.2790   10.1731 C.3     1  UNL1        0.0285
      5 C          73.6318   77.3984   10.5899 C.3     1  UNL1        0.0237
      6 C          73.4200   76.3393   11.6308 C.3     1  UNL1        0.0909
      7 C          72.7030   79.3381    9.1322 C.3     1  UNL1        0.1117
      8 C          72.5970   80.8190    9.3468 C.ar    1  UNL1        0.0272
      9 C          72.2743   81.6364   10.5624 C.ar    1  UNL1        0.1379
     10 F          71.9849   80.9570   11.8679 F       1  UNL1       -0.2044
     11 C          72.2411   83.1334   10.4723 C.ar    1  UNL1        0.0294
     12 C          72.5305   83.8128    9.1668 C.ar    1  UNL1        0.0023
     13 C          72.8532   82.9953    7.9512 C.ar    1  UNL1        0.0014
     14 C          72.8865   81.4984    8.0412 C.ar    1  UNL1        0.0173
     15 C          73.1714   80.4376    7.0197 C.ar    1  UNL1        0.0804
     16 C          73.5263   80.2019    5.5815 C.ar    1  UNL1        0.1178
     17 N          73.6323   78.7211    5.3669 N.ar    1  UNL1       -0.2223
     18 C          73.3429   78.0416    6.6725 C.ar    1  UNL1        0.1788
     19 N          73.0580   79.1025    7.6940 N.ar    1  UNL1       -0.3069
     20 C          71.4324   72.9834   15.3775 C.ar    1  UNL1        0.0054
     21 C          71.8300   72.5965   13.9839 C.ar    1  UNL1        0.0015
     22 C          72.0418   73.6557   12.9430 C.ar    1  UNL1        0.0168
     23 C          71.8559   75.1017   13.2957 C.ar    1  UNL1        0.0757
     24 C          71.4583   75.4886   14.6894 C.ar    1  UNL1        0.1533
     25 F          71.2724   76.9346   15.0421 F       1  UNL1       -0.2029
     26 C          71.2465   74.4295   15.7303 C.ar    1  UNL1        0.0310
     27 C          71.3344   68.3168   17.8460 C.3     1  UNL1        0.1538
     28 N          71.1755   69.7793   17.5529 N.ar    1  UNL1       -0.2473
     29 C          71.5505   70.4682   16.2743 C.ar    1  UNL1        0.0967
     30 C          71.2206   71.9243   16.4183 C.ar    1  UNL1        0.0397
     31 C          70.6417   72.1355   17.7859 C.ar    1  UNL1        0.1216
     32 N          70.6139   70.8098   18.4871 N.ar    1  UNL1       -0.1676
@<TRIPOS>BOND
     1    27    28    1
     2    28    29   ar
     3    29    30   ar
     4    30    20    1
     5    20    21   ar
     6    21    22   ar
     7    22    23   ar
     8    23     1    1
     9     1     2    1
    10     2     3    1
    11     3     4    1
    12     4     7    1
    13     7     8    1
    14     8     9   ar
    15     9    10    1
    16     9    11   ar
    17    11    12   ar
    18    12    13   ar
    19    13    14   ar
    20    14    15    1
    21    15    16   ar
    22    16    17   ar
    23    17    18   ar
    24    18    19   ar
    25     4     5    1
    26     5     6    1
    27    23    24   ar
    28    24    25    1
    29    24    26   ar
    30    30    31   ar
    31    31    32   ar
    32    32    28   ar
    33    26    20   ar
    34     6     1    1
    35    19     7    1
    36    14     8   ar
    37    19    15   ar
@<TRIPOS>MOLECULE
*****
 32 37 0 0 0
SMALL
GASTEIGER

@<TRIPOS>ATOM
      1 N          72.1875   76.5352   11.9925 N.pl3   1  UNL1       -0.3058
      2 C          71.0234   77.4472   11.7416 C.3     1  UNL1        0.0909
      3 C          71.1610   78.5927   10.7830 C.3     1  UNL1        0.0237
      4 C          72.4628   78.8262   10.0753 C.3     1  UNL1        0.0285
      5 C          73.6270   77.9141   10.3262 C.3     1  UNL1        0.0237
      6 C          73.4893   76.7686   11.2848 C.3     1  UNL1        0.0909
      7 C          72.6005   79.9717    9.1168 C.3     1  UNL1        0.1117
      8 C          72.9627   79.8677    7.6648 C.ar    1  UNL1        0.0272
      9 C          73.2742   78.6897    6.7899 C.ar    1  UNL1        0.1379
     10 F          73.2507   77.3035    7.3622 F       1  UNL1       -0.2044
     11 C          73.6091   78.8982    5.3427 C.ar    1  UNL1        0.0294
     12 C          73.6326   80.2845    4.7705 C.ar    1  UNL1        0.0023
     13 C          73.3211   81.4625    5.6454 C.ar    1  UNL1        0.0014
     14 C          72.9862   81.2541    7.0925 C.ar    1  UNL1        0.0173
     15 C          72.6385   82.2149    8.1907 C.ar    1  UNL1        0.0804
     16 C          72.4381   83.6654    8.5157 C.ar    1  UNL1        0.1178
     17 N          72.0759   83.7694    9.9676 N.ar    1  UNL1       -0.2223
     18 C          72.0524   82.3830   10.5400 C.ar    1  UNL1        0.1788
     19 N          72.4001   81.4223    9.4418 N.ar    1  UNL1       -0.3069
     20 C          71.7745   73.0986   14.8682 C.ar    1  UNL1        0.0054
     21 C          71.7969   72.8416   13.3906 C.ar    1  UNL1        0.0015
     22 C          71.9346   73.9871   12.4320 C.ar    1  UNL1        0.0168
     23 C          72.0498   75.3897   12.9510 C.ar    1  UNL1        0.0757
     24 C          72.0274   75.6468   14.4287 C.ar    1  UNL1        0.1533
     25 F          72.1427   77.0494   14.9478 F       1  UNL1       -0.2029
     26 C          71.8897   74.5013   15.3873 C.ar    1  UNL1        0.0310
     27 C          72.1077   68.2939   17.0326 C.3     1  UNL1        0.1538
     28 N          71.7900   69.7447   16.8216 N.ar    1  UNL1       -0.2473
     29 C          72.1465   70.5587   15.6132 C.ar    1  UNL1        0.0967
     30 C          71.6368   71.9531   15.8268 C.ar    1  UNL1        0.0397
     31 C          70.9653   72.0011   17.1672 C.ar    1  UNL1        0.1216
     32 N          71.0600   70.6361   17.7820 N.ar    1  UNL1       -0.1676
@<TRIPOS>BOND
     1    27    28    1
     2    28    29   ar
     3    29    30   ar
     4    30    20    1
     5    20    21   ar
     6    21    22   ar
     7    22    23   ar
     8    23     1    1
     9     1     2    1
    10     2     3    1
    11     3     4    1
    12     4     7    1
    13     7     8    1
    14     8     9   ar
    15     9    10    1
    16     9    11   ar
    17    11    12   ar
    18    12    13   ar
    19    13    14   ar
    20    14    15    1
    21    15    16   ar
    22    16    17   ar
    23    17    18   ar
    24    18    19   ar
    25     4     5    1
    26     5     6    1
    27    23    24   ar
    28    24    25    1
    29    24    26   ar
    30    30    31   ar
    31    31    32   ar
    32    32    28   ar
    33    26    20   ar
    34     6     1    1
    35    19     7    1
    36    14     8   ar
    37    19    15   ar
@<TRIPOS>MOLECULE
*****
 32 37 0 0 0
SMALL
GASTEIGER

@<TRIPOS>ATOM
      1 N          63.8770   87.2217   13.7418 N.pl3   1  UNL1       -0.3058
      2 C          63.3912   88.1869   12.7015 C.3     1  UNL1        0.0909
      3 C          63.9355   89.5841   12.6623 C.3     1  UNL1        0.0237
      4 C          64.9656   90.0161   13.6633 C.3     1  UNL1        0.0285
      5 C          65.4515   89.0509   14.7037 C.3     1  UNL1        0.0237
      6 C          64.9072   87.6536   14.7429 C.3     1  UNL1        0.0909
      7 C          65.5099   91.4133   13.6241 C.3     1  UNL1        0.1117
      8 C          65.4308   92.3581   12.4617 C.ar    1  UNL1        0.0272
      9 C          64.8351   92.2169   11.0923 C.ar    1  UNL1        0.1379
     10 F          64.1650   90.9353   10.6944 F       1  UNL1       -0.2044
     11 C          64.9096   93.3574   10.1208 C.ar    1  UNL1        0.0294
     12 C          65.5796   94.6390   10.5188 C.ar    1  UNL1        0.0023
     13 C          66.1753   94.7802   11.8881 C.ar    1  UNL1        0.0014
     14 C          66.1009   93.6398   12.8596 C.ar    1  UNL1        0.0173
     15 C          66.5941   93.4871   14.2680 C.ar    1  UNL1        0.0804
     16 C          67.3131   94.1849   15.3843 C.ar    1  UNL1        0.1178
     17 N          67.3922   93.2402   16.5466 N.ar    1  UNL1       -0.2223
     18 C          66.7222   91.9585   16.1488 C.ar    1  UNL1        0.1788
     19 N          66.2289   92.1111   14.7404 N.ar    1  UNL1       -0.3069
     20 C          62.2441   83.0301   13.8594 C.ar    1  UNL1        0.0054
     21 C          62.5188   83.6912   12.5413 C.ar    1  UNL1        0.0015
     22 C          63.0631   85.0884   12.5021 C.ar    1  UNL1        0.0168
     23 C          63.3327   85.8245   13.7810 C.ar    1  UNL1        0.0757
     24 C          63.0580   85.1633   15.0991 C.ar    1  UNL1        0.1533
     25 F          63.3276   85.8994   16.3780 F       1  UNL1       -0.2029
     26 C          62.5137   83.7661   15.1383 C.ar    1  UNL1        0.0310
     27 C          58.9646   78.9327   14.4401 C.3     1  UNL1        0.1538
     28 N          60.1924   79.7496   14.1655 N.ar    1  UNL1       -0.2473
     29 C          60.2961   81.2432   14.2559 C.ar    1  UNL1        0.0967
     30 C          61.6998   81.6328   13.8986 C.ar    1  UNL1        0.0397
     31 C          62.4638   80.3800   13.5874 C.ar    1  UNL1        0.1216
     32 N          61.5321   79.2161   13.7523 N.ar    1  UNL1       -0.1676
@<TRIPOS>BOND
     1    27    28    1
     2    28    29   ar
     3    29    30   ar
     4    30    20    1
     5    20    21   ar
     6    21    22   ar
     7    22    23   ar
     8    23     1    1
     9     1     2    1
    10     2     3    1
    11     3     4    1
    12     4     7    1
    13     7     8    1
    14     8     9   ar
    15     9    10    1
    16     9    11   ar
    17    11    12   ar
    18    12    13   ar
    19    13    14   ar
    20    14    15    1
    21    15    16   ar
    22    16    17   ar
    23    17    18   ar
    24    18    19   ar
    25     4     5    1
    26     5     6    1
    27    23    24   ar
    28    24    25    1
    29    24    26   ar
    30    30    31   ar
    31    31    32   ar
    32    32    28   ar
    33    26    20   ar
    34     6     1    1
    35    19     7    1
    36    14     8   ar
    37    19    15   ar
@<TRIPOS>MOLECULE
*****
 32 37 0 0 0
SMALL
GASTEIGER

@<TRIPOS>ATOM
      1 N          61.1925   87.0319    9.8389 N.pl3   1  UNL1       -0.3058
      2 C          60.7366   87.1916   11.2590 C.3     1  UNL1        0.0909
      3 C          61.2712   86.2819   12.3251 C.3     1  UNL1        0.0237
      4 C          62.2616   85.2125   11.9712 C.3     1  UNL1        0.0285
      5 C          62.7176   85.0528   10.5511 C.3     1  UNL1        0.0237
      6 C          62.1830   85.9625    9.4849 C.3     1  UNL1        0.0909
      7 C          62.7962   84.3028   13.0373 C.3     1  UNL1        0.1117
      8 C          62.8673   82.8061   12.9651 C.ar    1  UNL1        0.0272
      9 C          62.4623   81.8324   11.8985 C.ar    1  UNL1        0.1379
     10 F          61.8610   82.3301   10.6177 F       1  UNL1       -0.2044
     11 C          62.6585   80.3607   12.1128 C.ar    1  UNL1        0.0294
     12 C          63.2598   79.8630   13.3936 C.ar    1  UNL1        0.0023
     13 C          63.6648   80.8368   14.4603 C.ar    1  UNL1        0.0014
     14 C          63.4686   82.3084   14.2460 C.ar    1  UNL1        0.0173
     15 C          63.7691   83.4973   15.1098 C.ar    1  UNL1        0.0804
     16 C          64.3265   83.9244   16.4353 C.ar    1  UNL1        0.1178
     17 N          64.2553   85.4209   16.5075 N.ar    1  UNL1       -0.2223
     18 C          63.6541   85.9188   15.2266 C.ar    1  UNL1        0.1788
     19 N          63.3536   84.7298   14.3628 N.ar    1  UNL1       -0.3069
     20 C          59.5887   89.7611    6.6406 C.ar    1  UNL1        0.0054
     21 C          60.3823   90.3270    7.7808 C.ar    1  UNL1        0.0015
     22 C          60.9168   89.4173    8.8469 C.ar    1  UNL1        0.0168
     23 C          60.6579   87.9417    8.7728 C.ar    1  UNL1        0.0757
     24 C          59.8643   87.3757    7.6326 C.ar    1  UNL1        0.1533
     25 F          59.6053   85.9002    7.5586 F       1  UNL1       -0.2029
     26 C          59.3297   88.2855    6.5665 C.ar    1  UNL1        0.0310
     27 C          59.3141   93.0437    2.5138 C.3     1  UNL1        0.1538
     28 N          58.9279   92.1797    3.6777 N.ar    1  UNL1       -0.2473
     29 C          59.8667   91.3818    4.5333 C.ar    1  UNL1        0.0967
     30 C          59.0541   90.6709    5.5745 C.ar    1  UNL1        0.0397
     31 C          57.6131   91.0293    5.3625 C.ar    1  UNL1        0.1216
     32 N          57.5351   91.9618    4.1902 N.ar    1  UNL1       -0.1676
@<TRIPOS>BOND
     1    27    28    1
     2    28    29   ar
     3    29    30   ar
     4    30    20    1
     5    20    21   ar
     6    21    22   ar
     7    22    23   ar
     8    23     1    1
     9     1     2    1
    10     2     3    1
    11     3     4    1
    12     4     7    1
    13     7     8    1
    14     8     9   ar
    15     9    10    1
    16     9    11   ar
    17    11    12   ar
    18    12    13   ar
    19    13    14   ar
    20    14    15    1
    21    15    16   ar
    22    16    17   ar
    23    17    18   ar
    24    18    19   ar
    25     4     5    1
    26     5     6    1
    27    23    24   ar
    28    24    25    1
    29    24    26   ar
    30    30    31   ar
    31    31    32   ar
    32    32    28   ar
    33    26    20   ar
    34     6     1    1
    35    19     7    1
    36    14     8   ar
    37    19    15   ar
@<TRIPOS>MOLECULE
*****
 32 37 0 0 0
SMALL
GASTEIGER

@<TRIPOS>ATOM
      1 N          61.1995   86.9228    9.5616 N.pl3   1  UNL1       -0.3058
      2 C          60.7723   87.0426   10.9944 C.3     1  UNL1        0.0909
      3 C          61.3160   86.0937   12.0210 C.3     1  UNL1        0.0237
      4 C          62.2869   85.0250   11.6148 C.3     1  UNL1        0.0285
      5 C          62.7142   84.9051   10.1819 C.3     1  UNL1        0.0237
      6 C          62.1705   85.8540    9.1553 C.3     1  UNL1        0.0909
      7 C          62.8306   84.0760   12.6414 C.3     1  UNL1        0.1117
      8 C          63.5376   84.4578   13.9082 C.ar    1  UNL1        0.0272
      9 C          63.8929   85.7910   14.4966 C.ar    1  UNL1        0.1379
     10 F          63.5238   87.0523   13.7736 F       1  UNL1       -0.2044
     11 C          64.6174   85.8628   15.8082 C.ar    1  UNL1        0.0294
     12 C          64.9865   84.6015   16.5311 C.ar    1  UNL1        0.0023
     13 C          64.6312   83.2683   15.9426 C.ar    1  UNL1        0.0014
     14 C          63.9067   83.1964   14.6312 C.ar    1  UNL1        0.0173
     15 C          63.4279   82.0351   13.8113 C.ar    1  UNL1        0.0804
     16 C          63.3601   80.5378   13.7515 C.ar    1  UNL1        0.1178
     17 N          62.6532   80.1561   12.4848 N.ar    1  UNL1       -0.2223
     18 C          62.2840   81.4175   11.7618 C.ar    1  UNL1        0.1788
     19 N          62.7628   82.5788   12.5816 N.ar    1  UNL1       -0.3069
     20 C          59.5684   89.7696    6.4818 C.ar    1  UNL1        0.0054
     21 C          60.3560   90.2943    7.6455 C.ar    1  UNL1        0.0015
     22 C          60.8997   89.3454    8.6722 C.ar    1  UNL1        0.0168
     23 C          60.6558   87.8717    8.5350 C.ar    1  UNL1        0.0757
     24 C          59.8683   87.3469    7.3712 C.ar    1  UNL1        0.1533
     25 F          59.6244   85.8733    7.2340 F       1  UNL1       -0.2029
     26 C          59.3246   88.2959    6.3446 C.ar    1  UNL1        0.0310
     27 C          59.2546   93.1800    2.4628 C.3     1  UNL1        0.1538
     28 N          58.8805   92.2860    3.6079 N.ar    1  UNL1       -0.2473
     29 C          59.8255   91.4499    4.4190 C.ar    1  UNL1        0.0967
     30 C          59.0247   90.7185    5.4552 C.ar    1  UNL1        0.0397
     31 C          57.5848   91.1026    5.2846 C.ar    1  UNL1        0.1216
     32 N          57.4957   92.0714    4.1429 N.ar    1  UNL1       -0.1676
@<TRIPOS>BOND
     1    27    28    1
     2    28    29   ar
     3    29    30   ar
     4    30    20    1
     5    20    21   ar
     6    21    22   ar
     7    22    23   ar
     8    23     1    1
     9     1     2    1
    10     2     3    1
    11     3     4    1
    12     4     7    1
    13     7     8    1
    14     8     9   ar
    15     9    10    1
    16     9    11   ar
    17    11    12   ar
    18    12    13   ar
    19    13    14   ar
    20    14    15    1
    21    15    16   ar
    22    16    17   ar
    23    17    18   ar
    24    18    19   ar
    25     4     5    1
    26     5     6    1
    27    23    24   ar
    28    24    25    1
    29    24    26   ar
    30    30    31   ar
    31    31    32   ar
    32    32    28   ar
    33    26    20   ar
    34     6     1    1
    35    19     7    1
    36    14     8   ar
    37    19    15   ar
@<TRIPOS>MOLECULE
*****
 32 37 0 0 0
SMALL
GASTEIGER

@<TRIPOS>ATOM
      1 N          60.8082   87.5172    8.7369 N.pl3   1  UNL1       -0.3058
      2 C          60.1007   86.9911    7.5234 C.3     1  UNL1        0.0909
      3 C          59.5127   87.9445    6.5258 C.3     1  UNL1        0.0237
      4 C          59.6322   89.4240    6.7416 C.3     1  UNL1        0.0285
      5 C          60.3396   89.9502    7.9552 C.3     1  UNL1        0.0237
      6 C          60.9276   88.9969    8.9528 C.3     1  UNL1        0.0909
      7 C          59.0442   90.3774    5.7440 C.3     1  UNL1        0.1117
      8 C          59.8120   91.2010    4.7528 C.ar    1  UNL1        0.0272
      9 C          61.2803   91.3209    4.4709 C.ar    1  UNL1        0.1379
     10 F          62.2648   90.5147    5.2651 F       1  UNL1       -0.2044
     11 C          61.7642   92.2471    3.3947 C.ar    1  UNL1        0.0294
     12 C          60.7797   93.0532    2.6005 C.ar    1  UNL1        0.0023
     13 C          59.3113   92.9333    2.8824 C.ar    1  UNL1        0.0014
     14 C          58.8274   92.0072    3.9586 C.ar    1  UNL1        0.0173
     15 C          57.4512   91.6819    4.4589 C.ar    1  UNL1        0.0804
     16 C          55.9922   91.9792    4.2772 C.ar    1  UNL1        0.1178
     17 N          55.2245   91.1556    5.2683 N.ar    1  UNL1       -0.2223
     18 C          56.2090   90.3494    6.0626 C.ar    1  UNL1        0.1788
     19 N          57.5852   90.6747    5.5623 N.ar    1  UNL1       -0.3069
     20 C          62.5722   84.6571   11.7299 C.ar    1  UNL1        0.0054
     21 C          61.6283   85.7306   12.1844 C.ar    1  UNL1        0.0015
     22 C          61.0403   86.6839   11.1867 C.ar    1  UNL1        0.0168
     23 C          61.3962   86.5639    9.7346 C.ar    1  UNL1        0.0757
     24 C          62.3401   85.4903    9.2800 C.ar    1  UNL1        0.1533
     25 F          62.6960   85.3702    7.8278 F       1  UNL1       -0.2029
     26 C          62.9281   84.5369   10.2776 C.ar    1  UNL1        0.0310
     27 C          63.8680   80.2127   14.2693 C.3     1  UNL1        0.1538
     28 N          63.7558   81.6609   13.8947 N.ar    1  UNL1       -0.2473
     29 C          63.0055   82.2118   12.7185 C.ar    1  UNL1        0.0967
     30 C          63.1602   83.7037   12.7275 C.ar    1  UNL1        0.0397
     31 C          64.0061   84.0750   13.9093 C.ar    1  UNL1        0.1216
     32 N          64.3742   82.8124   14.6307 N.ar    1  UNL1       -0.1676
@<TRIPOS>BOND
     1    27    28    1
     2    28    29   ar
     3    29    30   ar
     4    30    20    1
     5    20    21   ar
     6    21    22   ar
     7    22    23   ar
     8    23     1    1
     9     1     2    1
    10     2     3    1
    11     3     4    1
    12     4     7    1
    13     7     8    1
    14     8     9   ar
    15     9    10    1
    16     9    11   ar
    17    11    12   ar
    18    12    13   ar
    19    13    14   ar
    20    14    15    1
    21    15    16   ar
    22    16    17   ar
    23    17    18   ar
    24    18    19   ar
    25     4     5    1
    26     5     6    1
    27    23    24   ar
    28    24    25    1
    29    24    26   ar
    30    30    31   ar
    31    31    32   ar
    32    32    28   ar
    33    26    20   ar
    34     6     1    1
    35    19     7    1
    36    14     8   ar
    37    19    15   ar
