@<TRIPOS>MOLECULE
*****
 50 56 0 0 0
SMALL
GASTEIGER

@<TRIPOS>ATOM
      1 C          62.1855   87.0791   10.5840 C.2     1  UNL1        0.0770
      2 N          62.7439   86.2885   11.7298 N.2     1  UNL1       -0.2460
      3 C          63.3321   87.2537   12.7160 C.2     1  UNL1        0.0773
      4 C          64.0200   87.0487   14.0330 C.2     1  UNL1        0.0182
      5 C          64.5130   88.2309   14.8137 C.2     1  UNL1       -0.0062
      6 C          64.3180   89.6181   14.2772 C.2     1  UNL1       -0.0322
      7 C          63.6301   89.8231   12.9602 C.3     1  UNL1        0.0500
      8 C          63.1372   88.6409   12.1795 C.2     1  UNL1       -0.0029
      9 C          62.4285   88.5330   10.8619 C.2     1  UNL1       -0.0057
     10 C          57.8995   86.4586    7.7124 C.3     1  UNL1        0.0310
     11 C          59.3607   86.2047    7.9370 C.ar    1  UNL1       -0.0221
     12 C          60.1401   85.3866    6.9505 C.ar    1  UNL1       -0.0085
     13 C          61.6013   85.1327    7.1751 C.ar    1  UNL1       -0.0221
     14 C          62.3807   84.3146    6.1886 C.3     1  UNL1        0.0310
     15 C          62.2831   85.6969    8.3863 C.ar    1  UNL1       -0.0028
     16 C          61.5037   86.5149    9.3728 C.ar    1  UNL1        0.0167
     17 C          60.0425   86.7688    9.1482 C.ar    1  UNL1       -0.0028
     18 C          64.8110   90.8003   15.0580 C.3     1  UNL1        0.0845
     19 C          65.4705   91.3402   13.8237 C.3     1  UNL1        0.0132
     20 C          64.1515   90.2603   16.2922 C.3     1  UNL1        0.0132
     21 C          65.3040   91.9824   15.8386 C.2     1  UNL1        0.2281
     22 O          64.3786   92.7018   16.7748 O.2     1  UNL1       -0.2746
     23 N          67.8722   92.3786   15.1959 N.am    1  UNL1       -0.2809
     24 C          68.3180   93.4475   15.9018 C.3     1  UNL1        0.0933
     25 C          68.6336   94.0903   16.3084 C.3     1  UNL1        0.0200
     26 C          69.5589   93.3709   15.3722 C.3     1  UNL1        0.0034
     27 C          69.0659   92.1888   14.5916 C.3     1  UNL1        0.0199
     28 C          67.6476   91.7259   14.7470 C.3     1  UNL1        0.0753
     29 C          66.7223   92.4452   15.6831 C.3     1  UNL1        0.0199
     30 C          67.2153   93.6275   16.4638 C.3     1  UNL1        0.0034
     31 C          62.0324   89.6779    9.9775 C.3     1  UNL1        0.0393
     32 C          63.0098   90.7802    9.6947 C.3     1  UNL1        0.0062
     33 C          60.6591   89.7207    9.3758 C.3     1  UNL1        0.0730
     34 N          60.4615   90.2758    7.9964 N.3     1  UNL1       -0.2969
     35 H          61.3893   90.4837    7.6270 H       1  UNL1        0.1233
     36 C          59.7531   89.4616    6.9546 C.3     1  UNL1        0.0730
     37 C          58.9128   90.1416    5.9147 C.3     1  UNL1        0.0395
     38 C          59.5563   91.0395    4.9000 C.2     1  UNL1       -0.0344
     39 C          58.7221   92.0190    4.1289 C.2     1  UNL1       -0.0041
     40 C          59.3656   92.9169    3.1142 C.2     1  UNL1        0.0495
     41 C          60.8434   92.8354    2.8706 C.2     1  UNL1        0.2320
     42 N          61.7504   93.5863    1.9414 N.2     1  UNL1       -0.0274
     43 C          63.1453   93.0710    2.1383 C.2     1  UNL1        0.4481
     44 N          63.1003   92.0015    3.1891 N.2     1  UNL1       -0.0313
     45 C          61.6777   91.8559    3.6417 C.2     1  UNL1        0.2174
     46 C          61.0341   90.9580    4.6564 C.3     1  UNL1        0.0998
     47 C          64.3700   93.5423    1.4118 C.3     1  UNL1        0.5036
     48 F          65.5948   94.0138    0.6853 F       1  UNL1       -0.1596
     49 F          64.9001   92.1392    1.3948 F       1  UNL1       -0.1596
     50 F          63.8400   94.9456    1.4287 F       1  UNL1       -0.1596
@<TRIPOS>BOND
     1    10    11    1
     2    11    12   ar
     3    12    13   ar
     4    13    14    1
     5    13    15   ar
     6    15    16   ar
     7    16     1    1
     8     1     2    2
     9     2     3    1
    10     3     4    2
    11     4     5    1
    12     5     6    2
    13     6    18    1
    14    18    19    1
    15    18    20    1
    16    18    21    1
    17    21    22    2
    18    21    23   am
    19    23    24    1
    20    24    25    1
    21    25    26    1
    22    26    27    1
    23    27    28    1
    24    28    29    1
    25    29    30    1
    26     6     7    1
    27     7     8    1
    28     8     9    2
    29     9    31    1
    30    31    32    1
    31    31    33    1
    32    33    34    1
    33    34    36    1
    34    36    37    1
    35    37    38    1
    36    38    39    2
    37    39    40    1
    38    40    41    2
    39    41    42    1
    40    42    43    2
    41    43    47    1
    42    47    48    1
    43    47    49    1
    44    47    50    1
    45    43    44    1
    46    44    45    2
    47    45    46    1
    48    16    17   ar
    49    17    11   ar
    50     9     1    1
    51    46    38    1
    52     8     3    1
    53    45    41    1
    54    28    23    1
    55    30    25    1
    56    34    35    1
@<TRIPOS>MOLECULE
*****
 50 56 0 0 0
SMALL
GASTEIGER

@<TRIPOS>ATOM
      1 C          62.1411   86.9957   10.4751 C.2     1  UNL1        0.0770
      2 N          62.7158   86.2036   11.6118 N.2     1  UNL1       -0.2460
      3 C          63.2944   87.1688   12.6036 C.2     1  UNL1        0.0773
      4 C          63.9909   86.9626   13.9160 C.2     1  UNL1        0.0182
      5 C          64.4703   88.1451   14.7045 C.2     1  UNL1       -0.0062
      6 C          64.2531   89.5338   14.1807 C.2     1  UNL1       -0.0322
      7 C          63.5567   89.7400   12.8684 C.3     1  UNL1        0.0500
      8 C          63.0773   88.5575   12.0798 C.2     1  UNL1       -0.0029
      9 C          62.3645   88.4505   10.7643 C.2     1  UNL1       -0.0057
     10 C          62.3438   84.2216    6.0860 C.3     1  UNL1        0.0310
     11 C          61.5635   85.0450    7.0676 C.ar    1  UNL1       -0.0221
     12 C          60.1045   85.3047    6.8361 C.ar    1  UNL1       -0.0085
     13 C          59.3243   86.1280    7.8175 C.ar    1  UNL1       -0.0221
     14 C          57.8651   86.3877    7.5861 C.3     1  UNL1        0.0310
     15 C          60.0032   86.6917    9.0306 C.ar    1  UNL1       -0.0028
     16 C          61.4623   86.4320    9.2621 C.ar    1  UNL1        0.0167
     17 C          62.2424   85.6087    8.2806 C.ar    1  UNL1       -0.0028
     18 C          64.7325   90.7163   14.9694 C.3     1  UNL1        0.0845
     19 C          65.2733   91.3342   13.7141 C.3     1  UNL1        0.0132
     20 C          64.1918   90.0985   16.2246 C.3     1  UNL1        0.0132
     21 C          65.2119   91.8988   15.7579 C.2     1  UNL1        0.2281
     22 O          64.2675   92.6257   16.6688 O.2     1  UNL1       -0.2746
     23 N          67.7969   92.2808   15.1769 N.am    1  UNL1       -0.2809
     24 C          68.2304   93.3500   15.8899 C.3     1  UNL1        0.0933
     25 C          68.5391   93.9927   16.3019 C.3     1  UNL1        0.0200
     26 C          69.4835   93.2658   15.3910 C.3     1  UNL1        0.0034
     27 C          69.0042   92.0834   14.6025 C.3     1  UNL1        0.0199
     28 C          67.5803   91.6277   14.7248 C.3     1  UNL1        0.0753
     29 C          66.6358   92.3545   15.6356 C.3     1  UNL1        0.0199
     30 C          67.1152   93.5370   16.4242 C.3     1  UNL1        0.0034
     31 C          61.9483   89.5971    9.8913 C.3     1  UNL1        0.0393
     32 C          62.8371   90.7979    9.7558 C.3     1  UNL1        0.0062
     33 C          60.6433   89.5430    9.1538 C.3     1  UNL1        0.0730
     34 N          60.5387   90.1158    7.7714 N.3     1  UNL1       -0.2969
     35 H          61.4379   89.9556    7.3175 H       1  UNL1        0.1233
     36 C          59.4833   89.6157    6.8302 C.3     1  UNL1        0.0730
     37 C          58.8823   90.5432    5.8160 C.3     1  UNL1        0.0395
     38 C          59.7610   91.2251    4.8097 C.2     1  UNL1       -0.0344
     39 C          61.1978   90.8176    4.6702 C.2     1  UNL1       -0.0041
     40 C          62.0765   91.4995    3.6638 C.2     1  UNL1        0.0495
     41 C          61.5185   92.5891    2.7969 C.2     1  UNL1        0.2320
     42 N          62.1386   93.4358    1.7252 N.2     1  UNL1       -0.0274
     43 C          61.0850   94.3667    1.2024 C.2     1  UNL1        0.4481
     44 N          59.8138   94.0952    1.9509 N.2     1  UNL1       -0.0313
     45 C          60.0817   92.9966    2.9364 C.2     1  UNL1        0.2174
     46 C          59.2030   92.3146    3.9428 C.3     1  UNL1        0.0998
     47 C          61.2701   95.3894    0.1209 C.3     1  UNL1        0.5036
     48 F          61.4554   96.4122   -0.9607 F       1  UNL1       -0.1596
     49 F          59.8783   95.8948    0.3604 F       1  UNL1       -0.1596
     50 F          62.6620   94.8840   -0.1187 F       1  UNL1       -0.1596
@<TRIPOS>BOND
     1    10    11    1
     2    11    12   ar
     3    12    13   ar
     4    13    14    1
     5    13    15   ar
     6    15    16   ar
     7    16     1    1
     8     1     2    2
     9     2     3    1
    10     3     4    2
    11     4     5    1
    12     5     6    2
    13     6    18    1
    14    18    19    1
    15    18    20    1
    16    18    21    1
    17    21    22    2
    18    21    23   am
    19    23    24    1
    20    24    25    1
    21    25    26    1
    22    26    27    1
    23    27    28    1
    24    28    29    1
    25    29    30    1
    26     6     7    1
    27     7     8    1
    28     8     9    2
    29     9    31    1
    30    31    32    1
    31    31    33    1
    32    33    34    1
    33    34    36    1
    34    36    37    1
    35    37    38    1
    36    38    39    2
    37    39    40    1
    38    40    41    2
    39    41    42    1
    40    42    43    2
    41    43    47    1
    42    47    48    1
    43    47    49    1
    44    47    50    1
    45    43    44    1
    46    44    45    2
    47    45    46    1
    48    16    17   ar
    49    17    11   ar
    50     9     1    1
    51    46    38    1
    52     8     3    1
    53    45    41    1
    54    28    23    1
    55    30    25    1
    56    34    35    1
@<TRIPOS>MOLECULE
*****
 50 56 0 0 0
SMALL
GASTEIGER

@<TRIPOS>ATOM
      1 C          61.6906   86.5626   10.7022 C.2     1  UNL1        0.0770
      2 N          60.8781   85.7586    9.7309 N.2     1  UNL1       -0.2460
      3 C          60.3293   86.6969    8.6974 C.2     1  UNL1        0.0773
      4 C          59.4597   86.4700    7.4964 C.2     1  UNL1        0.0182
      5 C          59.0634   87.6270    6.6280 C.2     1  UNL1       -0.0062
      6 C          59.5367   89.0110    6.9606 C.2     1  UNL1       -0.0322
      7 C          60.4062   89.2380    8.1615 C.3     1  UNL1        0.0500
      8 C          60.8025   88.0809    9.0299 C.2     1  UNL1       -0.0029
      9 C          61.6438   87.9979   10.2690 C.2     1  UNL1       -0.0057
     10 C          64.6442   87.3582   14.9026 C.3     1  UNL1        0.0310
     11 C          63.8983   86.4234   13.9972 C.ar    1  UNL1       -0.0221
     12 C          63.8832   84.9516   14.2866 C.ar    1  UNL1       -0.0085
     13 C          63.1372   84.0169   13.3812 C.ar    1  UNL1       -0.0221
     14 C          63.1221   82.5451   13.6705 C.3     1  UNL1        0.0310
     15 C          62.4064   84.5539   12.1864 C.ar    1  UNL1       -0.0028
     16 C          62.4215   86.0256   11.8970 C.ar    1  UNL1        0.0167
     17 C          63.1674   86.9603   12.8024 C.ar    1  UNL1       -0.0028
     18 C          59.1403   90.1681    6.0921 C.3     1  UNL1        0.0845
     19 C          60.5442   90.6929    6.1507 C.3     1  UNL1        0.0132
     20 C          57.7364   89.6432    6.0335 C.3     1  UNL1        0.0132
     21 C          58.7440   91.3251    5.2236 C.2     1  UNL1        0.2281
     22 O          57.3639   91.9035    5.3285 O.2     1  UNL1       -0.2746
     23 N          60.8447   91.9593    3.6905 N.am    1  UNL1       -0.2809
     24 C          60.4864   93.0056    2.9053 C.3     1  UNL1        0.0933
     25 C          60.3151   93.6396    2.4085 C.3     1  UNL1        0.0200
     26 C          61.6952   93.0612    2.3036 C.3     1  UNL1        0.0034
     27 C          62.0915   91.9041    3.1720 C.3     1  UNL1        0.0199
     28 C          61.1077   91.3255    4.1454 C.3     1  UNL1        0.0753
     29 C          59.7277   91.9038    4.2503 C.3     1  UNL1        0.0199
     30 C          59.3314   93.0609    3.3818 C.3     1  UNL1        0.0034
     31 C          62.3198   89.1482   10.9544 C.3     1  UNL1        0.0393
     32 C          63.4519   89.8637   10.2787 C.3     1  UNL1        0.0062
     33 C          61.8637   89.5832   12.3155 C.3     1  UNL1        0.0730
     34 N          62.5968   90.6735   13.0393 N.3     1  UNL1       -0.2969
     35 H          61.8913   91.3264   13.3806 H       1  UNL1        0.1233
     36 C          63.4773   90.3384   14.2065 C.3     1  UNL1        0.0730
     37 C          64.9506   90.6118   14.1374 C.3     1  UNL1        0.0395
     38 C          65.4498   91.8766   13.5042 C.2     1  UNL1       -0.0344
     39 C          66.0715   92.9457   14.3530 C.2     1  UNL1       -0.0041
     40 C          66.5708   94.2105   13.7198 C.2     1  UNL1        0.0495
     41 C          66.4483   94.4063   12.2377 C.2     1  UNL1        0.2320
     42 N          66.8473   95.5386   11.3385 N.2     1  UNL1       -0.0274
     43 C          66.4722   95.1694    9.9339 C.2     1  UNL1        0.4481
     44 N          65.8413   93.8089    9.9650 N.2     1  UNL1       -0.0313
     45 C          65.8266   93.3372   11.3889 C.2     1  UNL1        0.2174
     46 C          65.3274   92.0724   12.0221 C.3     1  UNL1        0.0998
     47 C          66.6897   96.0127    8.7127 C.3     1  UNL1        0.5036
     48 F          66.9073   96.8560    7.4913 F       1  UNL1       -0.1596
     49 F          65.4271   96.7667    9.0083 F       1  UNL1       -0.1596
     50 F          67.9524   95.2587    8.4170 F       1  UNL1       -0.1596
@<TRIPOS>BOND
     1    10    11    1
     2    11    12   ar
     3    12    13   ar
     4    13    14    1
     5    13    15   ar
     6    15    16   ar
     7    16     1    1
     8     1     2    2
     9     2     3    1
    10     3     4    2
    11     4     5    1
    12     5     6    2
    13     6    18    1
    14    18    19    1
    15    18    20    1
    16    18    21    1
    17    21    22    2
    18    21    23   am
    19    23    24    1
    20    24    25    1
    21    25    26    1
    22    26    27    1
    23    27    28    1
    24    28    29    1
    25    29    30    1
    26     6     7    1
    27     7     8    1
    28     8     9    2
    29     9    31    1
    30    31    32    1
    31    31    33    1
    32    33    34    1
    33    34    36    1
    34    36    37    1
    35    37    38    1
    36    38    39    2
    37    39    40    1
    38    40    41    2
    39    41    42    1
    40    42    43    2
    41    43    47    1
    42    47    48    1
    43    47    49    1
    44    47    50    1
    45    43    44    1
    46    44    45    2
    47    45    46    1
    48    16    17   ar
    49    17    11   ar
    50     9     1    1
    51    46    38    1
    52     8     3    1
    53    45    41    1
    54    28    23    1
    55    30    25    1
    56    34    35    1
@<TRIPOS>MOLECULE
*****
 50 56 0 0 0
SMALL
GASTEIGER

@<TRIPOS>ATOM
      1 C          62.1128   85.5435   11.0805 C.2     1  UNL1        0.0770
      2 N          61.6639   84.7771    9.8717 N.2     1  UNL1       -0.2460
      3 C          61.0321   85.7461    8.9168 C.2     1  UNL1        0.0773
      4 C          60.4112   85.5617    7.5639 C.2     1  UNL1        0.0182
      5 C          59.8487   86.7425    6.8296 C.2     1  UNL1       -0.0062
      6 C          59.9071   88.1077    7.4482 C.2     1  UNL1       -0.0322
      7 C          60.5281   88.2922    8.8011 C.3     1  UNL1        0.0500
      8 C          61.0906   87.1114    9.5354 C.2     1  UNL1       -0.0029
      9 C          61.7585   86.9861   10.8726 C.2     1  UNL1       -0.0057
     10 C          63.5848   81.4200   13.8787 C.3     1  UNL1        0.0310
     11 C          63.5321   82.9065   13.6847 C.ar    1  UNL1       -0.0221
     12 C          64.1627   83.8176   14.6957 C.ar    1  UNL1       -0.0085
     13 C          64.1100   85.3041   14.5016 C.ar    1  UNL1       -0.0221
     14 C          64.7406   86.2153   15.5126 C.3     1  UNL1        0.0310
     15 C          63.4267   85.8793   13.2966 C.ar    1  UNL1       -0.0028
     16 C          62.7961   84.9682   12.2856 C.ar    1  UNL1        0.0167
     17 C          62.8488   83.4818   12.4796 C.ar    1  UNL1       -0.0028
     18 C          59.3446   89.2886    6.7139 C.3     1  UNL1        0.0845
     19 C          60.1237   90.2123    7.6024 C.3     1  UNL1        0.0132
     20 C          58.5654   88.3649    5.8253 C.3     1  UNL1        0.0132
     21 C          58.7821   90.4694    5.9796 C.2     1  UNL1        0.2281
     22 O          57.3692   90.9059    6.2316 O.2     1  UNL1       -0.2746
     23 N          60.6930   91.4183    4.3629 N.am    1  UNL1       -0.2809
     24 C          60.1844   92.4861    3.6989 C.3     1  UNL1        0.0933
     25 C          59.9201   93.1391    3.2725 C.3     1  UNL1        0.0200
     26 C          61.3329   92.7026    3.0205 C.3     1  UNL1        0.0034
     27 C          61.8954   91.5218    3.7548 C.3     1  UNL1        0.0199
     28 C          61.0451   90.7774    4.7411 C.3     1  UNL1        0.0753
     29 C          59.6324   91.2138    4.9932 C.3     1  UNL1        0.0199
     30 C          59.0698   92.3947    4.2589 C.3     1  UNL1        0.0034
     31 C          62.0252   88.1068   11.8333 C.3     1  UNL1        0.0393
     32 C          63.3993   88.2931   12.4055 C.3     1  UNL1        0.0062
     33 C          60.9180   89.0411   12.2219 C.3     1  UNL1        0.0730
     34 N          61.1111   90.5238   12.1020 N.3     1  UNL1       -0.2969
     35 H          61.8619   90.7759   12.7448 H       1  UNL1        0.1233
     36 C          61.4559   91.1304   10.7742 C.3     1  UNL1        0.0730
     37 C          62.8468   90.9989   10.2281 C.3     1  UNL1        0.0395
     38 C          63.9983   91.6367   10.9473 C.2     1  UNL1       -0.0344
     39 C          64.7134   92.8030   10.3323 C.2     1  UNL1       -0.0041
     40 C          65.8650   93.4407   11.0515 C.2     1  UNL1        0.0495
     41 C          66.3014   92.9122   12.3858 C.2     1  UNL1        0.2320
     42 N          67.3942   93.3325   13.3232 N.2     1  UNL1       -0.0274
     43 C          67.3545   92.4260   14.5176 C.2     1  UNL1        0.4481
     44 N          66.2371   91.4454   14.3183 N.2     1  UNL1       -0.0313
     45 C          65.5862   91.7458   13.0007 C.2     1  UNL1        0.2174
     46 C          64.4347   91.1081   12.2815 C.3     1  UNL1        0.0998
     47 C          68.2713   92.4890   15.7032 C.3     1  UNL1        0.5036
     48 F          69.1882   92.5521   16.8887 F       1  UNL1       -0.1596
     49 F          67.0847   92.5808   16.6161 F       1  UNL1       -0.1596
     50 F          69.4581   92.3973   14.7903 F       1  UNL1       -0.1596
@<TRIPOS>BOND
     1    10    11    1
     2    11    12   ar
     3    12    13   ar
     4    13    14    1
     5    13    15   ar
     6    15    16   ar
     7    16     1    1
     8     1     2    2
     9     2     3    1
    10     3     4    2
    11     4     5    1
    12     5     6    2
    13     6    18    1
    14    18    19    1
    15    18    20    1
    16    18    21    1
    17    21    22    2
    18    21    23   am
    19    23    24    1
    20    24    25    1
    21    25    26    1
    22    26    27    1
    23    27    28    1
    24    28    29    1
    25    29    30    1
    26     6     7    1
    27     7     8    1
    28     8     9    2
    29     9    31    1
    30    31    32    1
    31    31    33    1
    32    33    34    1
    33    34    36    1
    34    36    37    1
    35    37    38    1
    36    38    39    2
    37    39    40    1
    38    40    41    2
    39    41    42    1
    40    42    43    2
    41    43    47    1
    42    47    48    1
    43    47    49    1
    44    47    50    1
    45    43    44    1
    46    44    45    2
    47    45    46    1
    48    16    17   ar
    49    17    11   ar
    50     9     1    1
    51    46    38    1
    52     8     3    1
    53    45    41    1
    54    28    23    1
    55    30    25    1
    56    34    35    1
@<TRIPOS>MOLECULE
*****
 50 56 0 0 0
SMALL
GASTEIGER

@<TRIPOS>ATOM
      1 C          63.0922   83.3748   13.8663 C.2     1  UNL1        0.0770
      2 N          63.2075   83.6177   15.3420 N.2     1  UNL1       -0.2460
      3 C          63.4238   85.0867   15.5545 C.2     1  UNL1        0.0773
      4 C          63.6064   85.9048   16.7984 C.2     1  UNL1        0.0182
      5 C          63.8074   87.3878   16.6979 C.2     1  UNL1       -0.0062
      6 C          63.8259   88.0528   15.3535 C.2     1  UNL1       -0.0322
      7 C          63.6433   87.2348   14.1096 C.3     1  UNL1        0.0500
      8 C          63.4423   85.7517   14.2101 C.2     1  UNL1       -0.0029
      9 C          63.2373   84.6937   13.1667 C.2     1  UNL1       -0.0057
     10 C          61.6429   78.3931   14.1532 C.3     1  UNL1        0.0310
     11 C          62.1461   79.5554   13.3495 C.ar    1  UNL1       -0.0221
     12 C          62.4278   79.3891   11.8856 C.ar    1  UNL1       -0.0085
     13 C          62.9310   80.5514   11.0820 C.ar    1  UNL1       -0.0221
     14 C          63.2127   80.3851    9.6180 C.3     1  UNL1        0.0310
     15 C          63.1524   81.8799   11.7422 C.ar    1  UNL1       -0.0028
     16 C          62.8707   82.0462   13.2061 C.ar    1  UNL1        0.0167
     17 C          62.3676   80.8839   14.0097 C.ar    1  UNL1       -0.0028
     18 C          64.0269   89.5359   15.2531 C.3     1  UNL1        0.0845
     19 C          63.4756   89.7044   16.6379 C.3     1  UNL1        0.0132
     20 C          64.5782   89.3675   13.8683 C.3     1  UNL1        0.0132
     21 C          64.2279   91.0190   15.1528 C.2     1  UNL1        0.2281
     22 O          63.0441   91.9399   15.1800 O.2     1  UNL1       -0.2746
     23 N          66.8566   91.4799   14.9460 N.am    1  UNL1       -0.2809
     24 C          67.0384   92.8210   14.8552 C.3     1  UNL1        0.0933
     25 C          67.1984   93.6267   14.7972 C.3     1  UNL1        0.0200
     26 C          68.3822   92.7058   14.7700 C.3     1  UNL1        0.0034
     27 C          68.1812   91.2227   14.8704 C.3     1  UNL1        0.0199
     28 C          66.7964   90.6605   14.9980 C.3     1  UNL1        0.0753
     29 C          65.6126   91.5812   15.0252 C.3     1  UNL1        0.0199
     30 C          65.8136   93.0644   14.9248 C.3     1  UNL1        0.0034
     31 C          63.1864   84.9156   11.6841 C.3     1  UNL1        0.0393
     32 C          64.2599   84.3479   10.8034 C.3     1  UNL1        0.0062
     33 C          62.0622   85.7052   11.0821 C.3     1  UNL1        0.0730
     34 N          62.0987   86.0739    9.6285 N.3     1  UNL1       -0.2969
     35 H          62.4158   85.2467    9.1229 H       1  UNL1        0.1233
     36 C          60.8515   86.5485    8.9436 C.3     1  UNL1        0.0730
     37 C          60.2075   87.8358    9.3657 C.3     1  UNL1        0.0395
     38 C          60.9997   88.8558   10.1285 C.2     1  UNL1       -0.0344
     39 C          60.5991   89.2246   11.5262 C.2     1  UNL1       -0.0041
     40 C          61.3913   90.2447   12.2890 C.2     1  UNL1        0.0495
     41 C          62.5840   90.8960   11.6542 C.2     1  UNL1        0.2320
     42 N          63.5501   91.9277   12.1564 N.2     1  UNL1       -0.0274
     43 C          64.5478   92.1966   11.0691 C.2     1  UNL1        0.4481
     44 N          64.1983   91.3311    9.8949 N.2     1  UNL1       -0.0313
     45 C          62.9846   90.5273   10.2565 C.2     1  UNL1        0.2174
     46 C          62.1925   89.5072    9.4937 C.3     1  UNL1        0.0998
     47 C          65.6938   93.1616   11.1430 C.3     1  UNL1        0.5036
     48 F          66.8399   94.1266   11.2170 F       1  UNL1       -0.1596
     49 F          64.8512   94.2129   10.4837 F       1  UNL1       -0.1596
     50 F          66.5366   92.1103   11.8023 F       1  UNL1       -0.1596
@<TRIPOS>BOND
     1    10    11    1
     2    11    12   ar
     3    12    13   ar
     4    13    14    1
     5    13    15   ar
     6    15    16   ar
     7    16     1    1
     8     1     2    2
     9     2     3    1
    10     3     4    2
    11     4     5    1
    12     5     6    2
    13     6    18    1
    14    18    19    1
    15    18    20    1
    16    18    21    1
    17    21    22    2
    18    21    23   am
    19    23    24    1
    20    24    25    1
    21    25    26    1
    22    26    27    1
    23    27    28    1
    24    28    29    1
    25    29    30    1
    26     6     7    1
    27     7     8    1
    28     8     9    2
    29     9    31    1
    30    31    32    1
    31    31    33    1
    32    33    34    1
    33    34    36    1
    34    36    37    1
    35    37    38    1
    36    38    39    2
    37    39    40    1
    38    40    41    2
    39    41    42    1
    40    42    43    2
    41    43    47    1
    42    47    48    1
    43    47    49    1
    44    47    50    1
    45    43    44    1
    46    44    45    2
    47    45    46    1
    48    16    17   ar
    49    17    11   ar
    50     9     1    1
    51    46    38    1
    52     8     3    1
    53    45    41    1
    54    28    23    1
    55    30    25    1
    56    34    35    1
@<TRIPOS>MOLECULE
*****
 50 56 0 0 0
SMALL
GASTEIGER

@<TRIPOS>ATOM
      1 C          62.1536   88.5027    9.6705 C.2     1  UNL1        0.0770
      2 N          62.4016   89.9152    9.2309 N.2     1  UNL1       -0.2460
      3 C          63.1125   90.6287   10.3425 C.2     1  UNL1        0.0773
      4 C          63.6103   92.0375   10.4743 C.2     1  UNL1        0.0182
      5 C          64.2995   92.4747   11.7328 C.2     1  UNL1       -0.0062
      6 C          64.4907   91.5031   12.8595 C.2     1  UNL1       -0.0322
      7 C          63.9929   90.0943   12.7277 C.3     1  UNL1        0.0500
      8 C          63.3038   89.6571   11.4692 C.2     1  UNL1       -0.0029
      9 C          62.7111   88.3432   11.0539 C.2     1  UNL1       -0.0057
     10 C          57.7964   86.3936    7.7818 C.3     1  UNL1        0.0310
     11 C          59.2897   86.3823    7.9235 C.ar    1  UNL1       -0.0221
     12 C          60.0976   85.3052    7.2624 C.ar    1  UNL1       -0.0085
     13 C          61.5909   85.2940    7.4040 C.ar    1  UNL1       -0.0221
     14 C          62.3989   84.2168    6.7429 C.3     1  UNL1        0.0310
     15 C          62.2762   86.3598    8.2067 C.ar    1  UNL1       -0.0028
     16 C          61.4683   87.4369    8.8678 C.ar    1  UNL1        0.0167
     17 C          59.9750   87.4482    8.7262 C.ar    1  UNL1       -0.0028
     18 C          65.1799   91.9404   14.1181 C.3     1  UNL1        0.0845
     19 C          64.6613   90.7233   14.8249 C.3     1  UNL1        0.0132
     20 C          65.6985   93.1575   13.4113 C.3     1  UNL1        0.0132
     21 C          65.8690   92.3776   15.3766 C.2     1  UNL1        0.2281
     22 O          65.0687   92.6375   16.6184 O.2     1  UNL1       -0.2746
     23 N          68.4917   92.5364   14.8649 N.am    1  UNL1       -0.2809
     24 C          69.1149   92.9318   16.0029 C.3     1  UNL1        0.0933
     25 C          69.5369   93.1697   16.6687 C.3     1  UNL1        0.0200
     26 C          70.3371   92.9099   15.4269 C.3     1  UNL1        0.0034
     27 C          69.6480   92.4727   14.1683 C.3     1  UNL1        0.0199
     28 C          68.1587   92.2953   14.1516 C.3     1  UNL1        0.0753
     29 C          67.3584   92.5551   15.3933 C.3     1  UNL1        0.0199
     30 C          68.0475   92.9923   16.6520 C.3     1  UNL1        0.0034
     31 C          62.6813   87.0899   11.8774 C.3     1  UNL1        0.0393
     32 C          61.6379   86.0445   11.6148 C.3     1  UNL1        0.0062
     33 C          63.6947   86.8817   12.9635 C.3     1  UNL1        0.0730
     34 N          63.4904   87.5096   14.3103 N.3     1  UNL1       -0.2969
     35 H          62.5043   87.3925   14.5433 H       1  UNL1        0.1233
     36 C          64.2754   87.0221   15.4919 C.3     1  UNL1        0.0730
     37 C          64.8673   85.6439   15.4822 C.3     1  UNL1        0.0395
     38 C          64.1116   84.5074   14.8598 C.2     1  UNL1       -0.0344
     39 C          62.8390   84.0203   15.4868 C.2     1  UNL1       -0.0041
     40 C          62.0833   82.8839   14.8645 C.2     1  UNL1        0.0495
     41 C          62.6002   82.2344   13.6150 C.2     1  UNL1        0.2320
     42 N          62.0758   81.1033   12.7810 N.2     1  UNL1       -0.0274
     43 C          63.0244   80.8913   11.6386 C.2     1  UNL1        0.4481
     44 N          64.1350   81.8914   11.7665 N.2     1  UNL1       -0.0313
     45 C          63.8728   82.7215   12.9880 C.2     1  UNL1        0.2174
     46 C          64.6285   83.8580   13.6104 C.3     1  UNL1        0.0998
     47 C          62.8865   79.8603   10.5579 C.3     1  UNL1        0.5036
     48 F          62.7486   78.8290    9.4773 F       1  UNL1       -0.1596
     49 F          63.2131   80.8983    9.5256 F       1  UNL1       -0.1596
     50 F          62.5599   78.8220   11.5902 F       1  UNL1       -0.1596
@<TRIPOS>BOND
     1    10    11    1
     2    11    12   ar
     3    12    13   ar
     4    13    14    1
     5    13    15   ar
     6    15    16   ar
     7    16     1    1
     8     1     2    2
     9     2     3    1
    10     3     4    2
    11     4     5    1
    12     5     6    2
    13     6    18    1
    14    18    19    1
    15    18    20    1
    16    18    21    1
    17    21    22    2
    18    21    23   am
    19    23    24    1
    20    24    25    1
    21    25    26    1
    22    26    27    1
    23    27    28    1
    24    28    29    1
    25    29    30    1
    26     6     7    1
    27     7     8    1
    28     8     9    2
    29     9    31    1
    30    31    32    1
    31    31    33    1
    32    33    34    1
    33    34    36    1
    34    36    37    1
    35    37    38    1
    36    38    39    2
    37    39    40    1
    38    40    41    2
    39    41    42    1
    40    42    43    2
    41    43    47    1
    42    47    48    1
    43    47    49    1
    44    47    50    1
    45    43    44    1
    46    44    45    2
    47    45    46    1
    48    16    17   ar
    49    17    11   ar
    50     9     1    1
    51    46    38    1
    52     8     3    1
    53    45    41    1
    54    28    23    1
    55    30    25    1
    56    34    35    1
@<TRIPOS>MOLECULE
*****
 50 56 0 0 0
SMALL
GASTEIGER

@<TRIPOS>ATOM
      1 C          62.8138   84.5357   15.0970 C.2     1  UNL1        0.0770
      2 N          61.9131   85.3645   15.9640 N.2     1  UNL1       -0.2460
      3 C          62.4596   86.7610   15.9987 C.2     1  UNL1        0.0773
      4 C          61.9895   88.0059   16.6910 C.2     1  UNL1        0.0182
      5 C          62.7578   89.2850   16.5376 C.2     1  UNL1       -0.0062
      6 C          63.9962   89.3192   15.6919 C.2     1  UNL1       -0.0322
      7 C          64.4663   88.0744   14.9996 C.3     1  UNL1        0.0500
      8 C          63.6980   86.7953   15.1530 C.2     1  UNL1       -0.0029
      9 C          63.9169   85.4200   14.5957 C.2     1  UNL1       -0.0057
     10 C          59.7174   80.4709   14.1538 C.3     1  UNL1        0.0310
     11 C          61.0934   81.0460   14.3142 C.ar    1  UNL1       -0.0221
     12 C          62.2972   80.1640   14.1635 C.ar    1  UNL1       -0.0085
     13 C          63.6732   80.7392   14.3239 C.ar    1  UNL1       -0.0221
     14 C          64.8771   79.8571   14.1731 C.3     1  UNL1        0.0310
     15 C          63.8454   82.1964   14.6350 C.ar    1  UNL1       -0.0028
     16 C          62.6416   83.0785   14.7858 C.ar    1  UNL1        0.0167
     17 C          61.2656   82.5033   14.6254 C.ar    1  UNL1       -0.0028
     18 C          64.7645   90.5984   15.5386 C.3     1  UNL1        0.0845
     19 C          65.7932   89.8818   14.7151 C.3     1  UNL1        0.0132
     20 C          63.7358   91.3151   16.3620 C.3     1  UNL1        0.0132
     21 C          65.5328   91.8775   15.3852 C.2     1  UNL1        0.2281
     22 O          66.1726   92.5163   16.5822 O.2     1  UNL1       -0.2746
     23 N          65.4526   92.5799   12.8034 N.am    1  UNL1       -0.2809
     24 C          66.1473   93.7365   12.6646 C.3     1  UNL1        0.0933
     25 C          66.5584   94.4374   12.5312 C.3     1  UNL1        0.0200
     26 C          65.9186   93.7986   11.3342 C.3     1  UNL1        0.0034
     27 C          65.1503   92.5196   11.4876 C.3     1  UNL1        0.0199
     28 C          65.0217   91.8792   12.8379 C.3     1  UNL1        0.0753
     29 C          65.6614   92.5179   14.0349 C.3     1  UNL1        0.0199
     30 C          66.4298   93.7971   13.8815 C.3     1  UNL1        0.0034
     31 C          65.0415   85.0023   13.6953 C.3     1  UNL1        0.0393
     32 C          66.4487   84.9787   14.2143 C.3     1  UNL1        0.0062
     33 C          64.7590   84.6081   12.2759 C.3     1  UNL1        0.0730
     34 N          65.0884   83.2235   11.8022 N.3     1  UNL1       -0.2969
     35 H          65.0314   82.6123   12.6168 H       1  UNL1        0.1233
     36 C          64.2657   82.5844   10.7230 C.3     1  UNL1        0.0730
     37 C          62.8268   82.9708   10.5487 C.3     1  UNL1        0.0395
     38 C          62.4636   84.3952   10.2502 C.2     1  UNL1       -0.0344
     39 C          62.9353   85.0392    8.9803 C.2     1  UNL1       -0.0041
     40 C          62.5720   86.4636    8.6818 C.2     1  UNL1        0.0495
     41 C          61.7371   87.2441    9.6532 C.2     1  UNL1        0.2320
     42 N          61.2249   88.6537    9.6303 N.2     1  UNL1       -0.0274
     43 C          60.4367   88.8810   10.8861 C.2     1  UNL1        0.4481
     44 N          60.4617   87.6118   11.6851 N.2     1  UNL1       -0.0313
     45 C          61.2654   86.6001   10.9231 C.2     1  UNL1        0.2174
     46 C          61.6286   85.1757   11.2216 C.3     1  UNL1        0.0998
     47 C          59.7449   90.1540   11.2745 C.3     1  UNL1        0.5036
     48 F          59.0531   91.4270   11.6632 F       1  UNL1       -0.1596
     49 F          59.8053   90.6215    9.8506 F       1  UNL1       -0.1596
     50 F          59.6845   89.6865   12.6986 F       1  UNL1       -0.1596
@<TRIPOS>BOND
     1    10    11    1
     2    11    12   ar
     3    12    13   ar
     4    13    14    1
     5    13    15   ar
     6    15    16   ar
     7    16     1    1
     8     1     2    2
     9     2     3    1
    10     3     4    2
    11     4     5    1
    12     5     6    2
    13     6    18    1
    14    18    19    1
    15    18    20    1
    16    18    21    1
    17    21    22    2
    18    21    23   am
    19    23    24    1
    20    24    25    1
    21    25    26    1
    22    26    27    1
    23    27    28    1
    24    28    29    1
    25    29    30    1
    26     6     7    1
    27     7     8    1
    28     8     9    2
    29     9    31    1
    30    31    32    1
    31    31    33    1
    32    33    34    1
    33    34    36    1
    34    36    37    1
    35    37    38    1
    36    38    39    2
    37    39    40    1
    38    40    41    2
    39    41    42    1
    40    42    43    2
    41    43    47    1
    42    47    48    1
    43    47    49    1
    44    47    50    1
    45    43    44    1
    46    44    45    2
    47    45    46    1
    48    16    17   ar
    49    17    11   ar
    50     9     1    1
    51    46    38    1
    52     8     3    1
    53    45    41    1
    54    28    23    1
    55    30    25    1
    56    34    35    1
@<TRIPOS>MOLECULE
*****
 50 56 0 0 0
SMALL
GASTEIGER

@<TRIPOS>ATOM
      1 C          63.0505   84.6118   12.9855 C.2     1  UNL1        0.0770
      2 N          63.6424   85.1883   14.2374 N.2     1  UNL1       -0.2460
      3 C          63.8718   86.6531   14.0098 C.2     1  UNL1        0.0773
      4 C          64.4324   87.7299   14.8907 C.2     1  UNL1        0.0182
      5 C          64.5429   89.1356   14.3790 C.2     1  UNL1       -0.0062
      6 C          64.0927   89.4644   12.9865 C.2     1  UNL1       -0.0322
      7 C          63.5321   88.3875   12.1056 C.3     1  UNL1        0.0500
      8 C          63.4216   86.9819   12.6173 C.2     1  UNL1       -0.0029
      9 C          62.9140   85.7203   11.9842 C.2     1  UNL1       -0.0057
     10 C          63.3369   80.2407   10.1906 C.3     1  UNL1        0.0310
     11 C          62.8062   80.9929   11.3749 C.ar    1  UNL1       -0.0221
     12 C          61.8881   80.3118   12.3460 C.ar    1  UNL1       -0.0085
     13 C          61.3574   81.0640   13.5303 C.ar    1  UNL1       -0.0221
     14 C          60.4392   80.3829   14.5015 C.3     1  UNL1        0.0310
     15 C          61.7449   82.4973   13.7435 C.ar    1  UNL1       -0.0028
     16 C          62.6630   83.1784   12.7724 C.ar    1  UNL1        0.0167
     17 C          63.1937   82.4262   11.5881 C.ar    1  UNL1       -0.0028
     18 C          64.2032   90.8701   12.4748 C.3     1  UNL1        0.0845
     19 C          64.9820   91.2541   13.6979 C.3     1  UNL1        0.0132
     20 C          63.4244   90.4862   11.2517 C.3     1  UNL1        0.0132
     21 C          64.3137   92.2758   11.9632 C.2     1  UNL1        0.2281
     22 O          63.1998   93.2513   12.2037 O.2     1  UNL1       -0.2746
     23 N          66.6671   92.5115   10.7096 N.am    1  UNL1       -0.2809
     24 C          66.7670   93.7826   10.2469 C.3     1  UNL1        0.0933
     25 C          66.8729   94.5423    9.9474 C.3     1  UNL1        0.0200
     26 C          67.9868   93.5669    9.7068 C.3     1  UNL1        0.0034
     27 C          67.8763   92.1612   10.2184 C.3     1  UNL1        0.0199
     28 C          66.6520   91.7308   10.9706 C.3     1  UNL1        0.0753
     29 C          65.5381   92.7062   11.2111 C.3     1  UNL1        0.0199
     30 C          65.6485   94.1120   10.6995 C.3     1  UNL1        0.0034
     31 C          62.3661   85.5901   10.5940 C.3     1  UNL1        0.0393
     32 C          63.0760   84.7368    9.5849 C.3     1  UNL1        0.0062
     33 C          61.1085   86.3131   10.2126 C.3     1  UNL1        0.0730
     34 N          60.8948   86.7489    8.7933 N.3     1  UNL1       -0.2969
     35 H          60.2485   86.0802    8.3742 H       1  UNL1        0.1233
     36 C          60.3519   88.1165    8.5024 C.3     1  UNL1        0.0730
     37 C          59.1724   88.2767    7.5896 C.3     1  UNL1        0.0395
     38 C          59.1481   89.3893    6.5838 C.2     1  UNL1       -0.0344
     39 C          57.8556   90.0767    6.2569 C.2     1  UNL1       -0.0041
     40 C          57.8313   91.1893    5.2511 C.2     1  UNL1        0.0495
     41 C          59.0995   91.6145    4.5722 C.2     1  UNL1        0.2320
     42 N          59.3830   92.6713    3.5462 N.2     1  UNL1       -0.0274
     43 C          60.8508   92.6370    3.2390 C.2     1  UNL1        0.4481
     44 N          61.4744   91.5591    4.0752 N.2     1  UNL1       -0.0313
     45 C          60.3919   90.9271    4.8992 C.2     1  UNL1        0.2174
     46 C          60.4163   89.8145    5.9049 C.3     1  UNL1        0.0998
     47 C          61.5690   93.5249    2.2664 C.3     1  UNL1        0.5036
     48 F          62.2872   94.4127    1.2937 F       1  UNL1       -0.1596
     49 F          60.5325   94.5894    2.4727 F       1  UNL1       -0.1596
     50 F          62.6055   92.4604    2.0600 F       1  UNL1       -0.1596
@<TRIPOS>BOND
     1    10    11    1
     2    11    12   ar
     3    12    13   ar
     4    13    14    1
     5    13    15   ar
     6    15    16   ar
     7    16     1    1
     8     1     2    2
     9     2     3    1
    10     3     4    2
    11     4     5    1
    12     5     6    2
    13     6    18    1
    14    18    19    1
    15    18    20    1
    16    18    21    1
    17    21    22    2
    18    21    23   am
    19    23    24    1
    20    24    25    1
    21    25    26    1
    22    26    27    1
    23    27    28    1
    24    28    29    1
    25    29    30    1
    26     6     7    1
    27     7     8    1
    28     8     9    2
    29     9    31    1
    30    31    32    1
    31    31    33    1
    32    33    34    1
    33    34    36    1
    34    36    37    1
    35    37    38    1
    36    38    39    2
    37    39    40    1
    38    40    41    2
    39    41    42    1
    40    42    43    2
    41    43    47    1
    42    47    48    1
    43    47    49    1
    44    47    50    1
    45    43    44    1
    46    44    45    2
    47    45    46    1
    48    16    17   ar
    49    17    11   ar
    50     9     1    1
    51    46    38    1
    52     8     3    1
    53    45    41    1
    54    28    23    1
    55    30    25    1
    56    34    35    1
@<TRIPOS>MOLECULE
*****
 50 56 0 0 0
SMALL
GASTEIGER

@<TRIPOS>ATOM
      1 C          62.0540   85.7298   11.1049 C.2     1  UNL1        0.0770
      2 N          61.5234   84.9403    9.9451 N.2     1  UNL1       -0.2460
      3 C          60.9115   85.9024    8.9705 C.2     1  UNL1        0.0773
      4 C          60.2352   85.6969    7.6475 C.2     1  UNL1        0.0182
      5 C          59.7114   86.8756    6.8819 C.2     1  UNL1       -0.0062
      6 C          59.8638   88.2598    7.4394 C.2     1  UNL1       -0.0322
      7 C          60.5401   88.4653    8.7624 C.3     1  UNL1        0.0500
      8 C          61.0639   87.2866    9.5279 C.2     1  UNL1       -0.0029
      9 C          61.7700   87.1799   10.8470 C.2     1  UNL1       -0.0057
     10 C          64.8487   86.4400   15.4275 C.3     1  UNL1        0.0310
     11 C          64.1443   85.5230   14.4721 C.ar    1  UNL1       -0.0221
     12 C          64.1328   84.0441   14.7225 C.ar    1  UNL1       -0.0085
     13 C          63.4283   83.1271   13.7671 C.ar    1  UNL1       -0.0221
     14 C          63.4168   81.6482   14.0175 C.3     1  UNL1        0.0310
     15 C          62.7354   83.6890   12.5612 C.ar    1  UNL1       -0.0028
     16 C          62.7469   85.1679   12.3108 C.ar    1  UNL1        0.0167
     17 C          63.4514   86.0849   13.2662 C.ar    1  UNL1       -0.0028
     18 C          59.3399   89.4386    6.6737 C.3     1  UNL1        0.0845
     19 C          59.9256   90.3644    7.6983 C.3     1  UNL1        0.0132
     20 C          58.7542   88.5128    5.6491 C.3     1  UNL1        0.0132
     21 C          58.8160   90.6173    5.9081 C.2     1  UNL1        0.2281
     22 O          57.4146   91.0994    6.1398 O.2     1  UNL1       -0.2746
     23 N          60.7637   91.4736    4.2837 N.am    1  UNL1       -0.2809
     24 C          60.2900   92.5395    3.5914 C.3     1  UNL1        0.0933
     25 C          60.0472   93.1895    3.1480 C.3     1  UNL1        0.0200
     26 C          61.4487   92.7075    2.9164 C.3     1  UNL1        0.0034
     27 C          61.9725   91.5288    3.6820 C.3     1  UNL1        0.0199
     28 C          61.0950   90.8320    4.6792 C.3     1  UNL1        0.0753
     29 C          59.6936   91.3140    4.9109 C.3     1  UNL1        0.0199
     30 C          59.1696   92.4928    4.1453 C.3     1  UNL1        0.0034
     31 C          62.1291   88.3228   11.7498 C.3     1  UNL1        0.0393
     32 C          63.4254   88.3038   12.5045 C.3     1  UNL1        0.0062
     33 C          61.1921   89.4846   11.8979 C.3     1  UNL1        0.0730
     34 N          61.5401   90.8111   11.2903 N.3     1  UNL1       -0.2969
     35 H          61.7715   91.4368   12.0619 H       1  UNL1        0.1233
     36 C          62.6623   90.9112   10.3001 C.3     1  UNL1        0.0730
     37 C          63.7872   91.8750   10.5362 C.3     1  UNL1        0.0395
     38 C          64.4738   91.9144   11.8693 C.2     1  UNL1       -0.0344
     39 C          63.8632   91.2167   13.0483 C.2     1  UNL1       -0.0041
     40 C          64.5498   91.2560   14.3814 C.2     1  UNL1        0.0495
     41 C          65.8470   91.9932   14.5354 C.2     1  UNL1        0.2320
     42 N          66.7477   92.2039   15.7162 N.2     1  UNL1       -0.0274
     43 C          67.9149   93.0319   15.2670 C.2     1  UNL1        0.4481
     44 N          67.7357   93.3329   13.8085 N.2     1  UNL1       -0.0313
     45 C          66.4577   92.6909   13.3563 C.2     1  UNL1        0.2174
     46 C          65.7711   92.6515   12.0233 C.3     1  UNL1        0.0998
     47 C          69.0603   93.4802   16.1255 C.3     1  UNL1        0.5036
     48 F          70.2058   93.9284   16.9841 F       1  UNL1       -0.1596
     49 F          68.7040   94.9116   15.8536 F       1  UNL1       -0.1596
     50 F          69.4167   92.0487   16.3974 F       1  UNL1       -0.1596
@<TRIPOS>BOND
     1    10    11    1
     2    11    12   ar
     3    12    13   ar
     4    13    14    1
     5    13    15   ar
     6    15    16   ar
     7    16     1    1
     8     1     2    2
     9     2     3    1
    10     3     4    2
    11     4     5    1
    12     5     6    2
    13     6    18    1
    14    18    19    1
    15    18    20    1
    16    18    21    1
    17    21    22    2
    18    21    23   am
    19    23    24    1
    20    24    25    1
    21    25    26    1
    22    26    27    1
    23    27    28    1
    24    28    29    1
    25    29    30    1
    26     6     7    1
    27     7     8    1
    28     8     9    2
    29     9    31    1
    30    31    32    1
    31    31    33    1
    32    33    34    1
    33    34    36    1
    34    36    37    1
    35    37    38    1
    36    38    39    2
    37    39    40    1
    38    40    41    2
    39    41    42    1
    40    42    43    2
    41    43    47    1
    42    47    48    1
    43    47    49    1
    44    47    50    1
    45    43    44    1
    46    44    45    2
    47    45    46    1
    48    16    17   ar
    49    17    11   ar
    50     9     1    1
    51    46    38    1
    52     8     3    1
    53    45    41    1
    54    28    23    1
    55    30    25    1
    56    34    35    1
