@<TRIPOS>MOLECULE
*****
 19 20 0 0 0
SMALL
GASTEIGER

@<TRIPOS>ATOM
      1 C          63.2835   87.9064   16.4215 C.3     1  UNL1        0.0797
      2 C          63.0861   89.3644   16.7131 C.3     1  UNL1        0.0305
      3 C          63.6281   90.3979   15.7707 C.3     1  UNL1        0.0913
      4 N          64.3674   89.9733   14.5366 N.pl3   1  UNL1       -0.3061
      5 C          64.5648   88.5153   14.2449 C.3     1  UNL1        0.0913
      6 C          64.0229   87.4818   15.1874 C.3     1  UNL1        0.0305
      7 C          64.9094   91.0068   13.5942 C.ar    1  UNL1        0.0723
      8 C          64.1769   91.3207   12.3234 C.ar    1  UNL1        0.0909
      9 CL         62.9023   90.6012   11.9951 Cl      1  UNL1       -0.0793
     10 C          64.7188   92.3542   11.3810 C.ar    1  UNL1        0.1115
     11 N          65.9934   93.0738   11.7093 N.ar    1  UNL1       -0.2405
     12 C          66.7259   92.7598   12.9800 C.ar    1  UNL1        0.1115
     13 C          66.1839   91.7264   13.9224 C.ar    1  UNL1        0.0909
     14 CL         66.9165   91.4125   15.1932 Cl      1  UNL1       -0.0793
     15 N          62.1906   85.5847   16.8282 N.am    1  UNL1       -0.3288
     16 C          62.7415   86.8729   17.3639 C.2     1  UNL1        0.2190
     17 O          62.7505   87.1276   18.8421 O.2     1  UNL1       -0.2753
     18 H          61.8349   84.9064   17.4468 H       1  UNL1        0.1449
     19 H          62.1848   85.4175   15.8580 H       1  UNL1        0.1449
@<TRIPOS>BOND
     1    15    16   am
     2    16    17    2
     3    16     1    1
     4     1     2    1
     5     2     3    1
     6     3     4    1
     7     4     7    1
     8     7     8   ar
     9     8     9    1
    10     8    10   ar
    11    10    11   ar
    12    11    12   ar
    13    12    13   ar
    14    13    14    1
    15     4     5    1
    16     5     6    1
    17     6     1    1
    18    13     7   ar
    19    15    18    1
    20    15    19    1
@<TRIPOS>MOLECULE
*****
 19 20 0 0 0
SMALL
GASTEIGER

@<TRIPOS>ATOM
      1 C          63.2844   87.9290   16.4035 C.3     1  UNL1        0.0797
      2 C          64.0272   87.5217   15.1656 C.3     1  UNL1        0.0305
      3 C          64.5629   88.5681   14.2339 C.3     1  UNL1        0.0913
      4 N          64.3559   90.0218   14.5402 N.pl3   1  UNL1       -0.3061
      5 C          63.6132   90.4291   15.7781 C.3     1  UNL1        0.0913
      6 C          63.0775   89.3827   16.7097 C.3     1  UNL1        0.0305
      7 C          64.8916   91.0682   13.6085 C.ar    1  UNL1        0.0723
      8 C          66.1203   91.8445   13.9794 C.ar    1  UNL1        0.0909
      9 CL         66.8134   91.5743   15.2820 Cl      1  UNL1       -0.0793
     10 C          66.6561   92.8909   13.0477 C.ar    1  UNL1        0.1115
     11 N          65.9630   93.1611   11.7452 N.ar    1  UNL1       -0.2405
     12 C          64.7343   92.3848   11.3743 C.ar    1  UNL1        0.1115
     13 C          64.1986   91.3384   12.3060 C.ar    1  UNL1        0.0909
     14 CL         62.9698   90.5621   11.9350 Cl      1  UNL1       -0.0793
     15 N          62.2282   85.5866   16.7879 N.am    1  UNL1       -0.3288
     16 C          62.7487   86.8825   17.3352 C.2     1  UNL1        0.2190
     17 O          62.7335   87.1320   18.8142 O.2     1  UNL1       -0.2753
     18 H          61.8766   84.8998   17.3994 H       1  UNL1        0.1449
     19 H          62.2382   85.4228   15.8171 H       1  UNL1        0.1449
@<TRIPOS>BOND
     1    15    16   am
     2    16    17    2
     3    16     1    1
     4     1     2    1
     5     2     3    1
     6     3     4    1
     7     4     7    1
     8     7     8   ar
     9     8     9    1
    10     8    10   ar
    11    10    11   ar
    12    11    12   ar
    13    12    13   ar
    14    13    14    1
    15     4     5    1
    16     5     6    1
    17     6     1    1
    18    13     7   ar
    19    15    18    1
    20    15    19    1
@<TRIPOS>MOLECULE
*****
 19 20 0 0 0
SMALL
GASTEIGER

@<TRIPOS>ATOM
      1 C          64.7312   91.3844   13.7230 C.3     1  UNL1        0.0797
      2 C          65.9719   92.1720   14.0235 C.3     1  UNL1        0.0305
      3 C          66.6132   92.9999   12.9496 C.3     1  UNL1        0.0913
      4 N          66.0138   93.0401   11.5752 N.pl3   1  UNL1       -0.3061
      5 C          64.7731   92.2526   11.2747 C.3     1  UNL1        0.0913
      6 C          64.1318   91.4247   12.3486 C.3     1  UNL1        0.0305
      7 C          66.6551   93.8680   10.5012 C.ar    1  UNL1        0.0723
      8 C          66.3595   95.3357   10.4086 C.ar    1  UNL1        0.0909
      9 CL         65.4226   95.9755   11.3899 Cl      1  UNL1       -0.0793
     10 C          67.0009   96.1636    9.3347 C.ar    1  UNL1        0.1115
     11 N          67.9377   95.5238    8.3534 N.ar    1  UNL1       -0.2405
     12 C          68.2333   94.0562    8.4460 C.ar    1  UNL1        0.1115
     13 C          67.5919   93.2283    9.5200 C.ar    1  UNL1        0.0909
     14 CL         67.8875   91.7606    9.6126 Cl      1  UNL1       -0.0793
     15 N          64.0200   89.0651   14.6531 N.am    1  UNL1       -0.3288
     16 C          64.0899   90.5565   14.7970 C.2     1  UNL1        0.2190
     17 O          63.5184   91.2200   16.0148 O.2     1  UNL1       -0.2753
     18 H          63.5991   88.5217   15.3580 H       1  UNL1        0.1449
     19 H          64.3951   88.6295   13.8538 H       1  UNL1        0.1449
@<TRIPOS>BOND
     1    15    16   am
     2    16    17    2
     3    16     1    1
     4     1     2    1
     5     2     3    1
     6     3     4    1
     7     4     7    1
     8     7     8   ar
     9     8     9    1
    10     8    10   ar
    11    10    11   ar
    12    11    12   ar
    13    12    13   ar
    14    13    14    1
    15     4     5    1
    16     5     6    1
    17     6     1    1
    18    13     7   ar
    19    15    18    1
    20    15    19    1
@<TRIPOS>MOLECULE
*****
 19 20 0 0 0
SMALL
GASTEIGER

@<TRIPOS>ATOM
      1 C          64.7662   91.2375   13.6953 C.3     1  UNL1        0.0797
      2 C          66.0297   91.9857   14.0013 C.3     1  UNL1        0.0305
      3 C          66.6673   92.8431   12.9486 C.3     1  UNL1        0.0913
      4 N          66.0414   92.9524   11.5899 N.pl3   1  UNL1       -0.3061
      5 C          64.7779   92.2042   11.2838 C.3     1  UNL1        0.0913
      6 C          64.1403   91.3467   12.3366 C.3     1  UNL1        0.0305
      7 C          66.6790   93.8099   10.5372 C.ar    1  UNL1        0.0723
      8 C          67.6026   93.1955    9.5275 C.ar    1  UNL1        0.0909
      9 CL         67.8887   91.7236    9.5706 Cl      1  UNL1       -0.0793
     10 C          68.2402   94.0530    8.4748 C.ar    1  UNL1        0.1115
     11 N          67.9542   95.5248    8.4317 N.ar    1  UNL1       -0.2405
     12 C          67.0305   96.1391    9.4413 C.ar    1  UNL1        0.1115
     13 C          66.3929   95.2817   10.4941 C.ar    1  UNL1        0.0909
     14 CL         65.4692   95.8961   11.5037 Cl      1  UNL1       -0.0793
     15 N          64.0028   88.9005   14.5354 N.am    1  UNL1       -0.3288
     16 C          64.1286   90.3800   14.7480 C.2     1  UNL1        0.2190
     17 O          63.6168   91.0020   16.0134 O.2     1  UNL1       -0.2753
     18 H          63.5843   88.3377   15.2264 H       1  UNL1        0.1449
     19 H          64.3387   88.4922   13.7050 H       1  UNL1        0.1449
@<TRIPOS>BOND
     1    15    16   am
     2    16    17    2
     3    16     1    1
     4     1     2    1
     5     2     3    1
     6     3     4    1
     7     4     7    1
     8     7     8   ar
     9     8     9    1
    10     8    10   ar
    11    10    11   ar
    12    11    12   ar
    13    12    13   ar
    14    13    14    1
    15     4     5    1
    16     5     6    1
    17     6     1    1
    18    13     7   ar
    19    15    18    1
    20    15    19    1
@<TRIPOS>MOLECULE
*****
 19 20 0 0 0
SMALL
GASTEIGER

@<TRIPOS>ATOM
      1 C          63.3375   83.6509   10.7039 C.3     1  UNL1        0.0797
      2 C          63.5639   84.1696    9.3148 C.3     1  UNL1        0.0305
      3 C          62.8591   85.4107    8.8535 C.3     1  UNL1        0.0913
      4 N          61.9278   86.1332    9.7813 N.pl3   1  UNL1       -0.3061
      5 C          61.7015   85.6145   11.1704 C.3     1  UNL1        0.0913
      6 C          62.4063   84.3734   11.6317 C.3     1  UNL1        0.0305
      7 C          61.2230   87.3743    9.3199 C.ar    1  UNL1        0.0723
      8 C          61.5529   88.6991    9.9413 C.ar    1  UNL1        0.0909
      9 CL         62.5877   88.7828   11.0240 Cl      1  UNL1       -0.0793
     10 C          60.8481   89.9402    9.4800 C.ar    1  UNL1        0.1115
     11 N          59.8133   89.8565    8.3973 N.ar    1  UNL1       -0.2405
     12 C          59.4834   88.5318    7.7759 C.ar    1  UNL1        0.1115
     13 C          60.1883   87.2907    8.2373 C.ar    1  UNL1        0.0909
     14 CL         59.8583   85.9659    7.6158 Cl      1  UNL1       -0.0793
     15 N          65.0228   82.4813   12.2981 N.am    1  UNL1       -0.3288
     16 C          64.0424   82.4098   11.1652 C.2     1  UNL1        0.2190
     17 O          63.7667   81.0972   10.4936 O.2     1  UNL1       -0.2753
     18 H          65.4854   81.6667   12.6009 H       1  UNL1        0.1449
     19 H          65.2037   83.3428   12.7390 H       1  UNL1        0.1449
@<TRIPOS>BOND
     1    15    16   am
     2    16    17    2
     3    16     1    1
     4     1     2    1
     5     2     3    1
     6     3     4    1
     7     4     7    1
     8     7     8   ar
     9     8     9    1
    10     8    10   ar
    11    10    11   ar
    12    11    12   ar
    13    12    13   ar
    14    13    14    1
    15     4     5    1
    16     5     6    1
    17     6     1    1
    18    13     7   ar
    19    15    18    1
    20    15    19    1
@<TRIPOS>MOLECULE
*****
 19 20 0 0 0
SMALL
GASTEIGER

@<TRIPOS>ATOM
      1 C          63.3307   83.6573   10.6996 C.3     1  UNL1        0.0797
      2 C          62.4047   84.3900   11.6245 C.3     1  UNL1        0.0305
      3 C          61.6982   85.6266   11.1539 C.3     1  UNL1        0.0913
      4 N          61.9176   86.1306    9.7583 N.pl3   1  UNL1       -0.3061
      5 C          62.8436   85.3979    8.8333 C.3     1  UNL1        0.0913
      6 C          63.5502   84.1612    9.3039 C.3     1  UNL1        0.0305
      7 C          61.2111   87.3672    9.2876 C.ar    1  UNL1        0.0723
      8 C          60.1740   87.2735    8.2080 C.ar    1  UNL1        0.0909
      9 CL         59.8435   85.9431    7.5989 Cl      1  UNL1       -0.0793
     10 C          59.4675   88.5101    7.7373 C.ar    1  UNL1        0.1115
     11 N          59.7980   89.8405    8.3464 N.ar    1  UNL1       -0.2405
     12 C          60.8350   89.9342    9.4260 C.ar    1  UNL1        0.1115
     13 C          61.5416   88.6975    9.8966 C.ar    1  UNL1        0.0909
     14 CL         62.5787   88.7913   10.9764 Cl      1  UNL1       -0.0793
     15 N          65.0261   82.5039   12.2950 N.am    1  UNL1       -0.3288
     16 C          64.0373   82.4206   11.1702 C.2     1  UNL1        0.2190
     17 O          63.7551   81.1007   10.5160 O.2     1  UNL1       -0.2753
     18 H          65.4898   81.6923   12.6039 H       1  UNL1        0.1449
     19 H          65.2113   83.3703   12.7245 H       1  UNL1        0.1449
@<TRIPOS>BOND
     1    15    16   am
     2    16    17    2
     3    16     1    1
     4     1     2    1
     5     2     3    1
     6     3     4    1
     7     4     7    1
     8     7     8   ar
     9     8     9    1
    10     8    10   ar
    11    10    11   ar
    12    11    12   ar
    13    12    13   ar
    14    13    14    1
    15     4     5    1
    16     5     6    1
    17     6     1    1
    18    13     7   ar
    19    15    18    1
    20    15    19    1
@<TRIPOS>MOLECULE
*****
 19 20 0 0 0
SMALL
GASTEIGER

@<TRIPOS>ATOM
      1 C          63.0608   90.1678   11.9165 C.3     1  UNL1        0.0797
      2 C          63.5697   89.4450   13.1284 C.3     1  UNL1        0.0305
      3 C          64.7088   90.0167   13.9194 C.3     1  UNL1        0.0913
      4 N          65.3389   91.3112   13.4986 N.pl3   1  UNL1       -0.3061
      5 C          64.8300   92.0340   12.2868 C.3     1  UNL1        0.0913
      6 C          63.6910   91.4623   11.4957 C.3     1  UNL1        0.0305
      7 C          66.4780   91.8830   14.2896 C.ar    1  UNL1        0.0723
      8 C          66.2523   92.3556   15.6951 C.ar    1  UNL1        0.0909
      9 CL         64.8875   92.2566   16.3097 Cl      1  UNL1       -0.0793
     10 C          67.3914   92.9274   16.4861 C.ar    1  UNL1        0.1115
     11 N          68.7561   93.0264   15.8716 N.ar    1  UNL1       -0.2405
     12 C          68.9817   92.5537   14.4660 C.ar    1  UNL1        0.1115
     13 C          67.8427   91.9820   13.6750 C.ar    1  UNL1        0.0909
     14 CL         68.0684   91.5093   12.2694 Cl      1  UNL1       -0.0793
     15 N          61.5494   90.1991    9.8036 N.am    1  UNL1       -0.3288
     16 C          61.9218   89.5961   11.1255 C.2     1  UNL1        0.2190
     17 O          61.1551   88.4213   11.6565 O.2     1  UNL1       -0.2753
     18 H          60.8018   89.8239    9.2844 H       1  UNL1        0.1449
     19 H          62.0526   90.9702    9.4551 H       1  UNL1        0.1449
@<TRIPOS>BOND
     1    15    16   am
     2    16    17    2
     3    16     1    1
     4     1     2    1
     5     2     3    1
     6     3     4    1
     7     4     7    1
     8     7     8   ar
     9     8     9    1
    10     8    10   ar
    11    10    11   ar
    12    11    12   ar
    13    12    13   ar
    14    13    14    1
    15     4     5    1
    16     5     6    1
    17     6     1    1
    18    13     7   ar
    19    15    18    1
    20    15    19    1
@<TRIPOS>MOLECULE
*****
 19 20 0 0 0
SMALL
GASTEIGER

@<TRIPOS>ATOM
      1 C          62.8993   90.0207   11.2113 C.3     1  UNL1        0.0797
      2 C          63.2406   89.2851   12.4732 C.3     1  UNL1        0.0305
      3 C          64.2433   89.8606   13.4289 C.3     1  UNL1        0.0913
      4 N          64.9047   91.1716   13.1229 N.pl3   1  UNL1       -0.3061
      5 C          64.5633   91.9072   11.8610 C.3     1  UNL1        0.0913
      6 C          63.5606   91.3318   10.9052 C.3     1  UNL1        0.0305
      7 C          65.9074   91.7471   14.0786 C.ar    1  UNL1        0.0723
      8 C          67.2916   92.0773   13.6046 C.ar    1  UNL1        0.0909
      9 CL         67.6733   91.8320   12.1748 Cl      1  UNL1       -0.0793
     10 C          68.2943   92.6527   14.5604 C.ar    1  UNL1        0.1115
     11 N          67.9127   92.8980   15.9901 N.ar    1  UNL1       -0.2405
     12 C          66.5284   92.5678   16.4641 C.ar    1  UNL1        0.1115
     13 C          65.5258   91.9923   15.5083 C.ar    1  UNL1        0.0909
     14 CL         64.1414   91.6621   15.9824 Cl      1  UNL1       -0.0793
     15 N          60.6951   90.2490    9.8550 N.am    1  UNL1       -0.3288
     16 C          61.8966   89.4453   10.2556 C.2     1  UNL1        0.2190
     17 O          62.0954   88.0661    9.7003 O.2     1  UNL1       -0.2753
     18 H          60.0370   89.8713    9.2277 H       1  UNL1        0.1449
     19 H          60.5646   91.1542   10.2195 H       1  UNL1        0.1449
@<TRIPOS>BOND
     1    15    16   am
     2    16    17    2
     3    16     1    1
     4     1     2    1
     5     2     3    1
     6     3     4    1
     7     4     7    1
     8     7     8   ar
     9     8     9    1
    10     8    10   ar
    11    10    11   ar
    12    11    12   ar
    13    12    13   ar
    14    13    14    1
    15     4     5    1
    16     5     6    1
    17     6     1    1
    18    13     7   ar
    19    15    18    1
    20    15    19    1
@<TRIPOS>MOLECULE
*****
 19 20 0 0 0
SMALL
GASTEIGER

@<TRIPOS>ATOM
      1 C          63.0963   88.4065   12.2905 C.3     1  UNL1        0.0797
      2 C          62.2831   87.6040   11.3186 C.3     1  UNL1        0.0305
      3 C          62.2199   86.1108   11.4470 C.3     1  UNL1        0.0913
      4 N          62.9698   85.4202   12.5473 N.pl3   1  UNL1       -0.3061
      5 C          63.7830   86.2228   13.5191 C.3     1  UNL1        0.0913
      6 C          63.8462   87.7159   13.3907 C.3     1  UNL1        0.0305
      7 C          62.9066   83.9271   12.6756 C.ar    1  UNL1        0.0723
      8 C          63.3034   83.0574   11.5197 C.ar    1  UNL1        0.0909
      9 CL         63.7635   83.6810   10.2353 Cl      1  UNL1       -0.0793
     10 C          63.2402   81.5643   11.6481 C.ar    1  UNL1        0.1115
     11 N          62.7801   80.9407   12.9324 N.ar    1  UNL1       -0.2405
     12 C          62.3833   81.8104   14.0883 C.ar    1  UNL1        0.1115
     13 C          62.4465   83.3035   13.9600 C.ar    1  UNL1        0.0909
     14 CL         62.0497   84.1732   15.1160 Cl      1  UNL1       -0.0793
     15 N          63.1588   90.7589   13.3916 N.am    1  UNL1       -0.3288
     16 C          63.1595   89.8997   12.1621 C.2     1  UNL1        0.2190
     17 O          63.2235   90.5337   10.8042 O.2     1  UNL1       -0.2753
     18 H          63.2003   91.7389   13.3074 H       1  UNL1        0.1449
     19 H          63.1168   90.3428   14.2829 H       1  UNL1        0.1449
@<TRIPOS>BOND
     1    15    16   am
     2    16    17    2
     3    16     1    1
     4     1     2    1
     5     2     3    1
     6     3     4    1
     7     4     7    1
     8     7     8   ar
     9     8     9    1
    10     8    10   ar
    11    10    11   ar
    12    11    12   ar
    13    12    13   ar
    14    13    14    1
    15     4     5    1
    16     5     6    1
    17     6     1    1
    18    13     7   ar
    19    15    18    1
    20    15    19    1
