@<TRIPOS>MOLECULE
*****
 30 34 0 0 0
SMALL
GASTEIGER

@<TRIPOS>ATOM
      1 C          63.0703   85.3184   15.9564 C.ar    1  UNL1        0.1427
      2 N          62.4655   85.3084   17.3291 N.ar    1  UNL1       -0.2046
      3 S          62.4860   86.7131   17.8548 S.2     1  UNL1        0.0132
      4 C          63.1035   87.5913   16.8072 C.ar    1  UNL1        0.0524
      5 C          63.3837   89.0644   16.7700 C.ar    1  UNL1        0.0481
      6 C          64.0249   89.6755   15.5596 C.ar    1  UNL1        0.1363
      7 C          64.3860   88.8135   14.3863 C.ar    1  UNL1        0.0402
      8 C          64.1059   87.3404   14.4234 C.ar    1  UNL1        0.0057
      9 C          63.4647   86.7293   15.6339 C.ar    1  UNL1        0.0304
     10 O          64.2058   83.0375   15.4485 O.2     1  UNL1       -0.2685
     11 C          63.2494   84.1268   15.0631 C.2     1  UNL1        0.2642
     12 N          62.4719   84.0245   13.7844 N.am    1  UNL1       -0.3009
     13 H          61.8441   84.7394   13.5314 H       1  UNL1        0.1497
     14 C          62.6509   82.8329   12.8911 C.3     1  UNL1        0.0828
     15 C          62.4531   81.3538   13.0434 C.3     1  UNL1        0.0863
     16 C          62.9042   81.1477   11.6278 C.3     1  UNL1        0.2671
     17 F          63.3553   80.9416   10.2122 F       1  UNL1       -0.2042
     18 F          62.7063   79.6686   11.7801 F       1  UNL1       -0.2042
     19 C          63.1020   82.6268   11.4755 C.3     1  UNL1        0.0863
     20 N          64.3051   91.1487   15.5223 N.pl3   1  UNL1       -0.1957
     21 H          63.7399   91.7704   16.0355 H       1  UNL1        0.2986
     22 C          65.4463   91.6746   14.7032 C.2     1  UNL1        0.3707
     23 N          66.8103   92.0292   15.2167 N.2     1  UNL1        0.0819
     24 N          67.6309   92.5120   14.0576 N.2     1  UNL1       -0.0365
     25 C          66.7740   92.4559   12.8277 C.2     1  UNL1        0.1346
     26 C          67.0487   92.8091   11.3960 C.3     1  UNL1        0.0792
     27 C          65.9733   92.6448   10.3634 C.2     1  UNL1        0.0010
     28 C          64.6231   92.1273   10.7624 C.2     1  UNL1        0.0950
     29 N          64.3484   91.7740   12.1941 N.2     1  UNL1       -0.2354
     30 C          65.4239   91.9383   13.2267 C.2     1  UNL1        0.1834
@<TRIPOS>BOND
     1    10    11    2
     2    11    12   am
     3    12    14    1
     4    14    15    1
     5    15    16    1
     6    16    17    1
     7    16    18    1
     8    16    19    1
     9    11     1    1
    10     1     2   ar
    11     2     3   ar
    12     3     4   ar
    13     4     5   ar
    14     5     6   ar
    15     6    20    1
    16    20    22    1
    17    22    23    2
    18    23    24    1
    19    24    25    2
    20    25    26    1
    21    26    27    1
    22    27    28    2
    23    28    29    1
    24    29    30    2
    25     6     7   ar
    26     7     8   ar
    27     8     9   ar
    28    19    14    1
    29     9     1   ar
    30     9     4   ar
    31    30    22    1
    32    30    25    1
    33    12    13    1
    34    20    21    1
@<TRIPOS>MOLECULE
*****
 30 34 0 0 0
SMALL
GASTEIGER

@<TRIPOS>ATOM
      1 C          62.1191   86.2016   11.2914 C.ar    1  UNL1        0.1427
      2 N          61.3764   86.3015    9.9920 N.ar    1  UNL1       -0.2046
      3 S          61.4264   87.7303    9.5383 S.2     1  UNL1        0.0132
      4 C          62.2000   88.5135   10.5573 C.ar    1  UNL1        0.0524
      5 C          62.5699   89.9649   10.6384 C.ar    1  UNL1        0.0481
      6 C          63.3679   90.4714   11.8031 C.ar    1  UNL1        0.1363
      7 C          63.7960   89.5266   12.8866 C.ar    1  UNL1        0.0402
      8 C          63.4261   88.0752   12.8054 C.ar    1  UNL1        0.0057
      9 C          62.6281   87.5687   11.6408 C.ar    1  UNL1        0.0304
     10 O          62.1285   84.9853   13.5872 O.2     1  UNL1       -0.2685
     11 C          62.3180   84.9537   12.0996 C.2     1  UNL1        0.2642
     12 N          62.7063   83.6739   11.4201 N.am    1  UNL1       -0.3009
     13 H          62.8307   83.6531   10.4438 H       1  UNL1        0.1497
     14 C          62.9051   82.4260   12.2284 C.3     1  UNL1        0.0828
     15 C          63.9792   81.9136   13.1415 C.3     1  UNL1        0.0863
     16 C          63.1863   80.6612   13.3713 C.3     1  UNL1        0.2671
     17 F          62.3934   79.4089   13.6011 F       1  UNL1       -0.2042
     18 F          64.2604   80.1488   14.2845 F       1  UNL1       -0.2042
     19 C          62.1122   81.1737   12.4581 C.3     1  UNL1        0.0863
     20 N          63.7378   91.9229   11.8844 N.pl3   1  UNL1       -0.1957
     21 H          63.0637   92.6142   11.6921 H       1  UNL1        0.2986
     22 C          65.1347   92.3210   12.2586 C.2     1  UNL1        0.3707
     23 N          66.2390   92.6655   11.3037 N.2     1  UNL1        0.0819
     24 N          67.4595   93.0020   12.1083 N.2     1  UNL1       -0.0365
     25 C          67.1094   92.8653   13.5605 C.2     1  UNL1        0.1346
     26 C          67.9133   93.0698   14.8103 C.3     1  UNL1        0.0792
     27 C          67.2805   92.8533   16.1529 C.2     1  UNL1        0.0010
     28 C          65.8437   92.4325   16.2457 C.2     1  UNL1        0.0950
     29 N          65.0398   92.2281   14.9959 N.2     1  UNL1       -0.2354
     30 C          65.6727   92.4445   13.6533 C.2     1  UNL1        0.1834
@<TRIPOS>BOND
     1    10    11    2
     2    11    12   am
     3    12    14    1
     4    14    15    1
     5    15    16    1
     6    16    17    1
     7    16    18    1
     8    16    19    1
     9    11     1    1
    10     1     2   ar
    11     2     3   ar
    12     3     4   ar
    13     4     5   ar
    14     5     6   ar
    15     6    20    1
    16    20    22    1
    17    22    23    2
    18    23    24    1
    19    24    25    2
    20    25    26    1
    21    26    27    1
    22    27    28    2
    23    28    29    1
    24    29    30    2
    25     6     7   ar
    26     7     8   ar
    27     8     9   ar
    28    19    14    1
    29     9     1   ar
    30     9     4   ar
    31    30    22    1
    32    30    25    1
    33    12    13    1
    34    20    21    1
@<TRIPOS>MOLECULE
*****
 30 34 0 0 0
SMALL
GASTEIGER

@<TRIPOS>ATOM
      1 C          63.2310   88.0026   12.7159 C.ar    1  UNL1        0.1427
      2 N          63.7169   87.3905   13.9962 N.ar    1  UNL1       -0.2046
      3 S          64.5366   88.4178   14.7192 S.2     1  UNL1        0.0132
      4 C          64.5573   89.6648   13.8858 C.ar    1  UNL1        0.0524
      5 C          65.2066   91.0008   14.0943 C.ar    1  UNL1        0.0481
      6 C          65.0489   92.0801   13.0648 C.ar    1  UNL1        0.1363
      7 C          64.2419   91.8235   11.8266 C.ar    1  UNL1        0.0402
      8 C          63.5926   90.4876   11.6181 C.ar    1  UNL1        0.0057
      9 C          63.7503   89.4082   12.6477 C.ar    1  UNL1        0.0304
     10 O          61.7266   86.0112   11.9938 O.2     1  UNL1       -0.2685
     11 C          62.3758   87.3276   11.6848 C.2     1  UNL1        0.2642
     12 N          62.1697   87.9692   10.3446 N.am    1  UNL1       -0.3009
     13 H          62.5957   88.8333   10.1418 H       1  UNL1        0.1497
     14 C          61.3145   87.2943    9.3136 C.3     1  UNL1        0.0828
     15 C          61.4659   86.0884    8.4343 C.3     1  UNL1        0.0863
     16 C          60.1051   86.3397    7.8554 C.3     1  UNL1        0.2671
     17 F          58.7443   86.5911    7.2766 F       1  UNL1       -0.2042
     18 F          60.2564   85.1339    6.9762 F       1  UNL1       -0.2042
     19 C          59.9538   87.5456    8.7347 C.3     1  UNL1        0.0863
     20 N          65.6982   93.4162   13.2733 N.pl3   1  UNL1       -0.1957
     21 H          65.8261   93.7644   14.1852 H       1  UNL1        0.2986
     22 C          66.1527   94.2216   12.0923 C.2     1  UNL1        0.3707
     23 N          65.8753   95.6771   11.8583 N.2     1  UNL1        0.0819
     24 N          66.5155   96.0680   10.5594 N.2     1  UNL1       -0.0365
     25 C          67.1887   94.8542    9.9906 C.2     1  UNL1        0.1346
     26 C          67.9769   94.6406    8.7324 C.3     1  UNL1        0.0792
     27 C          68.5409   93.2859    8.4216 C.2     1  UNL1        0.0010
     28 C          68.3166   92.1448    9.3690 C.2     1  UNL1        0.0950
     29 N          67.5284   92.3584   10.6272 N.2     1  UNL1       -0.2354
     30 C          66.9645   93.7131   10.9380 C.2     1  UNL1        0.1834
@<TRIPOS>BOND
     1    10    11    2
     2    11    12   am
     3    12    14    1
     4    14    15    1
     5    15    16    1
     6    16    17    1
     7    16    18    1
     8    16    19    1
     9    11     1    1
    10     1     2   ar
    11     2     3   ar
    12     3     4   ar
    13     4     5   ar
    14     5     6   ar
    15     6    20    1
    16    20    22    1
    17    22    23    2
    18    23    24    1
    19    24    25    2
    20    25    26    1
    21    26    27    1
    22    27    28    2
    23    28    29    1
    24    29    30    2
    25     6     7   ar
    26     7     8   ar
    27     8     9   ar
    28    19    14    1
    29     9     1   ar
    30     9     4   ar
    31    30    22    1
    32    30    25    1
    33    12    13    1
    34    20    21    1
@<TRIPOS>MOLECULE
*****
 30 34 0 0 0
SMALL
GASTEIGER

@<TRIPOS>ATOM
      1 C          60.5115   87.7798    8.9627 C.ar    1  UNL1        0.1427
      2 N          60.5925   86.3054    9.2265 N.ar    1  UNL1       -0.2046
      3 S          61.5280   86.0916   10.3794 S.2     1  UNL1        0.0132
      4 C          62.0251   87.4339   10.8281 C.ar    1  UNL1        0.0524
      5 C          62.9686   87.8408   11.9208 C.ar    1  UNL1        0.0481
      6 C          63.2839   89.2911   12.1379 C.ar    1  UNL1        0.1363
      7 C          62.6557   90.3344   11.2623 C.ar    1  UNL1        0.0402
      8 C          61.7122   89.9275   10.1696 C.ar    1  UNL1        0.0057
      9 C          61.3969   88.4772    9.9525 C.ar    1  UNL1        0.0304
     10 O          58.4191   87.7990    7.4227 O.2     1  UNL1       -0.2685
     11 C          59.6894   88.4408    7.8962 C.2     1  UNL1        0.2642
     12 N          60.1377   89.7437    7.3033 N.am    1  UNL1       -0.3009
     13 H          60.9715   90.1650    7.6141 H       1  UNL1        0.1497
     14 C          59.3156   90.4047    6.2368 C.3     1  UNL1        0.0828
     15 C          59.6187   91.2486    5.0343 C.3     1  UNL1        0.0863
     16 C          58.1530   91.3395    4.7286 C.3     1  UNL1        0.2671
     17 F          56.6873   91.4303    4.4231 F       1  UNL1       -0.2042
     18 F          58.4561   92.1833    3.5261 F       1  UNL1       -0.2042
     19 C          57.8499   90.4956    5.9312 C.3     1  UNL1        0.0863
     20 N          64.2275   89.6981   13.2307 N.pl3   1  UNL1       -0.1957
     21 H          65.1370   90.0021   13.0079 H       1  UNL1        0.2986
     22 C          63.7854   89.6418   14.6630 C.2     1  UNL1        0.3707
     23 N          63.4549   90.8199   15.5306 N.2     1  UNL1        0.0819
     24 N          63.0613   90.3039   16.8829 N.2     1  UNL1       -0.0365
     25 C          63.1485   88.8067   16.8511 C.2     1  UNL1        0.1346
     26 C          62.8783   87.7632   17.8941 C.3     1  UNL1        0.0792
     27 C          63.0556   86.3105   17.5652 C.2     1  UNL1        0.0010
     28 C          63.5031   85.9014   16.1932 C.2     1  UNL1        0.0950
     29 N          63.7733   86.9449   15.1501 N.2     1  UNL1       -0.2354
     30 C          63.5960   88.3976   15.4791 C.2     1  UNL1        0.1834
@<TRIPOS>BOND
     1    10    11    2
     2    11    12   am
     3    12    14    1
     4    14    15    1
     5    15    16    1
     6    16    17    1
     7    16    18    1
     8    16    19    1
     9    11     1    1
    10     1     2   ar
    11     2     3   ar
    12     3     4   ar
    13     4     5   ar
    14     5     6   ar
    15     6    20    1
    16    20    22    1
    17    22    23    2
    18    23    24    1
    19    24    25    2
    20    25    26    1
    21    26    27    1
    22    27    28    2
    23    28    29    1
    24    29    30    2
    25     6     7   ar
    26     7     8   ar
    27     8     9   ar
    28    19    14    1
    29     9     1   ar
    30     9     4   ar
    31    30    22    1
    32    30    25    1
    33    12    13    1
    34    20    21    1
@<TRIPOS>MOLECULE
*****
 30 34 0 0 0
SMALL
GASTEIGER

@<TRIPOS>ATOM
      1 C          62.3241   85.9899   10.8389 C.ar    1  UNL1        0.1427
      2 N          61.5216   86.3653    9.6285 N.ar    1  UNL1       -0.2046
      3 S          61.4130   87.8609    9.5900 S.2     1  UNL1        0.0132
      4 C          62.1483   88.4098   10.7766 C.ar    1  UNL1        0.0524
      5 C          62.3778   89.8131   11.2540 C.ar    1  UNL1        0.0481
      6 C          63.1705   90.0601   12.5032 C.ar    1  UNL1        0.1363
      7 C          63.7336   88.9038   13.2751 C.ar    1  UNL1        0.0402
      8 C          63.5041   87.5005   12.7977 C.ar    1  UNL1        0.0057
      9 C          62.7114   87.2535   11.5485 C.ar    1  UNL1        0.0304
     10 O          63.4311   83.6947   10.3324 O.2     1  UNL1       -0.2685
     11 C          62.6773   84.5958   11.2650 C.2     1  UNL1        0.2642
     12 N          62.2768   84.1026   12.6239 N.am    1  UNL1       -0.3009
     13 H          61.7820   84.6940   13.2361 H       1  UNL1        0.1497
     14 C          62.6300   82.7084   13.0499 C.3     1  UNL1        0.0828
     15 C          63.8663   82.0410   13.5754 C.3     1  UNL1        0.0863
     16 C          63.1295   80.7368   13.6525 C.3     1  UNL1        0.2671
     17 F          62.3926   79.4326   13.7295 F       1  UNL1       -0.2042
     18 F          64.3658   80.0694   14.1779 F       1  UNL1       -0.2042
     19 C          61.8931   81.4042   13.1270 C.3     1  UNL1        0.0863
     20 N          63.4001   91.4635   12.9807 N.pl3   1  UNL1       -0.1957
     21 H          63.0519   92.2235   12.4607 H       1  UNL1        0.2986
     22 C          64.1602   91.7089   14.2503 C.2     1  UNL1        0.3707
     23 N          63.5780   91.7526   15.6321 N.2     1  UNL1        0.0819
     24 N          64.6939   92.0243   16.5969 N.2     1  UNL1       -0.0365
     25 C          65.9658   92.1486   15.8115 C.2     1  UNL1        0.1346
     26 C          67.3817   92.4140   16.2295 C.3     1  UNL1        0.0792
     27 C          68.4677   92.4845   15.1972 C.2     1  UNL1        0.0010
     28 C          68.1378   92.2896   13.7470 C.2     1  UNL1        0.0950
     29 N          66.7219   92.0241   13.3290 N.2     1  UNL1       -0.2354
     30 C          65.6359   91.9536   14.3612 C.2     1  UNL1        0.1834
@<TRIPOS>BOND
     1    10    11    2
     2    11    12   am
     3    12    14    1
     4    14    15    1
     5    15    16    1
     6    16    17    1
     7    16    18    1
     8    16    19    1
     9    11     1    1
    10     1     2   ar
    11     2     3   ar
    12     3     4   ar
    13     4     5   ar
    14     5     6   ar
    15     6    20    1
    16    20    22    1
    17    22    23    2
    18    23    24    1
    19    24    25    2
    20    25    26    1
    21    26    27    1
    22    27    28    2
    23    28    29    1
    24    29    30    2
    25     6     7   ar
    26     7     8   ar
    27     8     9   ar
    28    19    14    1
    29     9     1   ar
    30     9     4   ar
    31    30    22    1
    32    30    25    1
    33    12    13    1
    34    20    21    1
@<TRIPOS>MOLECULE
*****
 30 34 0 0 0
SMALL
GASTEIGER

@<TRIPOS>ATOM
      1 C          63.0131   88.3080   12.4842 C.ar    1  UNL1        0.1427
      2 N          63.4011   87.8822   13.8692 N.ar    1  UNL1       -0.2046
      3 S          64.2580   88.9608   14.4627 S.2     1  UNL1        0.0132
      4 C          64.3997   90.0532   13.4446 C.ar    1  UNL1        0.0524
      5 C          65.1299   91.3631   13.4729 C.ar    1  UNL1        0.0481
      6 C          65.0908   92.2696   12.2785 C.ar    1  UNL1        0.1363
      7 C          64.3213   91.8661   11.0557 C.ar    1  UNL1        0.0402
      8 C          63.5911   90.5562   11.0273 C.ar    1  UNL1        0.0057
      9 C          63.6303   89.6497   12.2217 C.ar    1  UNL1        0.0304
     10 O          61.6240   86.1847   11.9261 O.2     1  UNL1       -0.2685
     11 C          62.1581   87.5289   11.5293 C.2     1  UNL1        0.2642
     12 N          61.8371   88.0942   10.1773 N.am    1  UNL1       -0.3009
     13 H          62.1877   88.9765    9.9168 H       1  UNL1        0.1497
     14 C          60.9821   87.3151    9.2224 C.3     1  UNL1        0.0828
     15 C          59.5786   87.4429    8.7087 C.3     1  UNL1        0.0863
     16 C          59.7729   86.2132    7.8719 C.3     1  UNL1        0.2671
     17 F          59.9673   84.9836    7.0352 F       1  UNL1       -0.2042
     18 F          58.3694   86.3410    7.3582 F       1  UNL1       -0.2042
     19 C          61.1765   86.0854    8.3856 C.3     1  UNL1        0.0863
     20 N          65.8210   93.5796   12.3068 N.pl3   1  UNL1       -0.1957
     21 H          65.7364   94.1735   13.0874 H       1  UNL1        0.2986
     22 C          66.6801   93.9846   11.1459 C.2     1  UNL1        0.3707
     23 N          68.0499   93.4572   10.8364 N.2     1  UNL1        0.0819
     24 N          68.5367   94.1347    9.5898 N.2     1  UNL1       -0.0365
     25 C          67.4678   95.0808    9.1288 C.2     1  UNL1        0.1346
     26 C          67.3910   96.0148    7.9576 C.3     1  UNL1        0.0792
     27 C          66.1669   96.8559    7.7481 C.2     1  UNL1        0.0010
     28 C          65.0195   96.7631    8.7098 C.2     1  UNL1        0.0950
     29 N          65.0963   95.8291    9.8810 N.2     1  UNL1       -0.2354
     30 C          66.3204   94.9879   10.0905 C.2     1  UNL1        0.1834
@<TRIPOS>BOND
     1    10    11    2
     2    11    12   am
     3    12    14    1
     4    14    15    1
     5    15    16    1
     6    16    17    1
     7    16    18    1
     8    16    19    1
     9    11     1    1
    10     1     2   ar
    11     2     3   ar
    12     3     4   ar
    13     4     5   ar
    14     5     6   ar
    15     6    20    1
    16    20    22    1
    17    22    23    2
    18    23    24    1
    19    24    25    2
    20    25    26    1
    21    26    27    1
    22    27    28    2
    23    28    29    1
    24    29    30    2
    25     6     7   ar
    26     7     8   ar
    27     8     9   ar
    28    19    14    1
    29     9     1   ar
    30     9     4   ar
    31    30    22    1
    32    30    25    1
    33    12    13    1
    34    20    21    1
@<TRIPOS>MOLECULE
*****
 30 34 0 0 0
SMALL
GASTEIGER

@<TRIPOS>ATOM
      1 C          62.6556   86.2336   11.5359 C.ar    1  UNL1        0.1427
      2 N          61.9686   87.0358   10.4709 N.ar    1  UNL1       -0.2046
      3 S          62.1025   88.4873   10.8250 S.2     1  UNL1        0.0132
      4 C          62.8723   88.5820   12.1090 C.ar    1  UNL1        0.0524
      5 C          63.3061   89.7567   12.9348 C.ar    1  UNL1        0.0481
      6 C          64.0817   89.5385   14.1999 C.ar    1  UNL1        0.1363
      7 C          64.4236   88.1456   14.6393 C.ar    1  UNL1        0.0402
      8 C          63.9898   86.9709   13.8135 C.ar    1  UNL1        0.0057
      9 C          63.2141   87.1892   12.5483 C.ar    1  UNL1        0.0304
     10 O          63.3306   83.9921   10.4089 O.2     1  UNL1       -0.2685
     11 C          62.7650   84.7383   11.5807 C.2     1  UNL1        0.2642
     12 N          62.3088   83.9890   12.7976 N.am    1  UNL1       -0.3009
     13 H          61.9376   84.4787   13.5667 H       1  UNL1        0.1497
     14 C          62.4182   82.4936   12.8424 C.3     1  UNL1        0.0828
     15 C          62.4129   81.4619   13.9312 C.3     1  UNL1        0.0863
     16 C          62.5728   80.3789   12.9057 C.3     1  UNL1        0.2671
     17 F          62.7328   79.2960   11.8803 F       1  UNL1       -0.2042
     18 F          62.5676   79.3472   13.9945 F       1  UNL1       -0.2042
     19 C          62.5781   81.4107   11.8169 C.3     1  UNL1        0.0863
     20 N          64.5156   90.7131   15.0258 N.pl3   1  UNL1       -0.1957
     21 H          64.1601   90.8331   15.9360 H       1  UNL1        0.2986
     22 C          65.4910   91.7050   14.4648 C.2     1  UNL1        0.3707
     23 N          66.6301   92.3382   15.2074 N.2     1  UNL1        0.0819
     24 N          67.3418   93.2624   14.2643 N.2     1  UNL1       -0.0365
     25 C          66.6425   93.2003   12.9387 C.2     1  UNL1        0.1346
     26 C          66.8995   93.8959   11.6348 C.3     1  UNL1        0.0792
     27 C          66.0126   93.6290   10.4549 C.2     1  UNL1        0.0010
     28 C          64.8689   92.6665   10.5788 C.2     1  UNL1        0.0950
     29 N          64.6119   91.9709   11.8827 N.2     1  UNL1       -0.2354
     30 C          65.4987   92.2378   13.0626 C.2     1  UNL1        0.1834
@<TRIPOS>BOND
     1    10    11    2
     2    11    12   am
     3    12    14    1
     4    14    15    1
     5    15    16    1
     6    16    17    1
     7    16    18    1
     8    16    19    1
     9    11     1    1
    10     1     2   ar
    11     2     3   ar
    12     3     4   ar
    13     4     5   ar
    14     5     6   ar
    15     6    20    1
    16    20    22    1
    17    22    23    2
    18    23    24    1
    19    24    25    2
    20    25    26    1
    21    26    27    1
    22    27    28    2
    23    28    29    1
    24    29    30    2
    25     6     7   ar
    26     7     8   ar
    27     8     9   ar
    28    19    14    1
    29     9     1   ar
    30     9     4   ar
    31    30    22    1
    32    30    25    1
    33    12    13    1
    34    20    21    1
@<TRIPOS>MOLECULE
*****
 30 34 0 0 0
SMALL
GASTEIGER

@<TRIPOS>ATOM
      1 C          63.4432   89.7124   12.0317 C.ar    1  UNL1        0.1427
      2 N          62.5520   89.2696   10.9094 N.ar    1  UNL1       -0.2046
      3 S          62.2401   87.8163   11.1109 S.2     1  UNL1        0.0132
      4 C          62.9385   87.3609   12.3579 C.ar    1  UNL1        0.0524
      5 C          62.9934   86.0306   13.0486 C.ar    1  UNL1        0.0481
      6 C          63.7919   85.8721   14.3084 C.ar    1  UNL1        0.1363
      7 C          64.5356   87.0439   14.8775 C.ar    1  UNL1        0.0402
      8 C          64.4806   88.3742   14.1867 C.ar    1  UNL1        0.0057
      9 C          63.6821   88.5327   12.9269 C.ar    1  UNL1        0.0304
     10 O          63.7681   91.8193   13.5166 O.2     1  UNL1       -0.2685
     11 C          63.9982   91.0925   12.2249 C.2     1  UNL1        0.2642
     12 N          64.7834   91.7457   11.1263 N.am    1  UNL1       -0.3009
     13 H          64.9345   91.2687   10.2785 H       1  UNL1        0.1497
     14 C          65.3384   93.1258   11.3196 C.3     1  UNL1        0.0828
     15 C          65.9372   93.8765   12.4719 C.3     1  UNL1        0.0863
     16 C          66.1232   95.0776   11.5928 C.3     1  UNL1        0.2671
     17 F          66.3092   96.2786   10.7137 F       1  UNL1       -0.2042
     18 F          66.7220   95.8283   12.7452 F       1  UNL1       -0.2042
     19 C          65.5244   94.3268   10.4404 C.3     1  UNL1        0.0863
     20 N          63.8469   84.5417   14.9992 N.pl3   1  UNL1       -0.1957
     21 H          64.2912   84.4592   15.8739 H       1  UNL1        0.2986
     22 C          63.2249   83.3371   14.3573 C.2     1  UNL1        0.3707
     23 N          62.2334   82.4105   14.9964 N.2     1  UNL1        0.0819
     24 N          61.8810   81.3483   13.9976 N.2     1  UNL1       -0.0365
     25 C          62.6547   81.6183   12.7413 C.2     1  UNL1        0.1346
     26 C          62.7103   80.9038   11.4236 C.3     1  UNL1        0.0792
     27 C          63.5964   81.4184   10.3282 C.2     1  UNL1        0.0010
     28 C          64.4270   82.6475   10.5505 C.2     1  UNL1        0.0950
     29 N          64.3715   83.3620   11.8682 N.2     1  UNL1       -0.2354
     30 C          63.4853   82.8474   12.9636 C.2     1  UNL1        0.1834
@<TRIPOS>BOND
     1    10    11    2
     2    11    12   am
     3    12    14    1
     4    14    15    1
     5    15    16    1
     6    16    17    1
     7    16    18    1
     8    16    19    1
     9    11     1    1
    10     1     2   ar
    11     2     3   ar
    12     3     4   ar
    13     4     5   ar
    14     5     6   ar
    15     6    20    1
    16    20    22    1
    17    22    23    2
    18    23    24    1
    19    24    25    2
    20    25    26    1
    21    26    27    1
    22    27    28    2
    23    28    29    1
    24    29    30    2
    25     6     7   ar
    26     7     8   ar
    27     8     9   ar
    28    19    14    1
    29     9     1   ar
    30     9     4   ar
    31    30    22    1
    32    30    25    1
    33    12    13    1
    34    20    21    1
