@<TRIPOS>MOLECULE
*****
 32 35 0 0 0
SMALL
GASTEIGER

@<TRIPOS>ATOM
      1 N          63.7488   87.1106   15.7784 N.am    1  UNL1       -0.2681
      2 C          64.1857   88.1788   14.8203 C.2     1  UNL1        0.3082
      3 O          64.2379   87.8911   13.3491 O.2     1  UNL1       -0.2522
      4 N          64.5705   89.5348   15.3335 N.am    1  UNL1       -0.2681
      5 H          63.7145   87.2994   16.7440 H       1  UNL1        0.1564
      6 H          64.5363   89.7236   16.2991 H       1  UNL1        0.1564
      7 C          63.4289   83.9563   13.3912 C.ar    1  UNL1        0.0548
      8 C          62.5943   83.0426   14.2391 C.ar    1  UNL1        0.0046
      9 C          62.1447   83.4850   15.6000 C.ar    1  UNL1        0.0014
     10 C          62.5295   84.8409   16.1131 C.ar    1  UNL1        0.0147
     11 C          63.3640   85.7546   15.2652 C.ar    1  UNL1        0.0517
     12 C          63.8137   85.3123   13.9043 C.ar    1  UNL1        0.0192
     13 C          63.7129   83.6771    9.4426 C.3     1  UNL1        0.1152
     14 N          63.2632   84.1194   10.8035 N.am    1  UNL1       -0.2726
     15 C          62.1982   85.1671   10.9378 C.3     1  UNL1        0.1152
     16 C          63.8785   83.5140   12.0303 C.2     1  UNL1        0.2492
     17 O          64.9435   82.4663   11.8961 O.2     1  UNL1       -0.2699
     18 C          65.0075   90.6030   14.3755 C.ar    1  UNL1        0.0516
     19 C          66.3237   91.2948   14.5729 C.ar    1  UNL1        0.0147
     20 C          66.7607   92.3630   13.6149 C.ar    1  UNL1        0.0010
     21 C          65.8814   92.7395   12.4593 C.ar    1  UNL1       -0.0014
     22 C          64.5652   92.0477   12.2618 C.ar    1  UNL1        0.0010
     23 C          64.1283   90.9795   13.2200 C.ar    1  UNL1        0.0147
     24 C          66.3184   93.8078   11.5013 C.2     1  UNL1        0.0158
     25 C          65.8888   95.2289   11.7156 C.2     1  UNL1        0.0487
     26 C          66.3258   96.2971   10.7576 C.2     1  UNL1        0.2355
     27 N          67.1925   95.9443    9.5852 N.2     1  UNL1       -0.0325
     28 C          67.6221   94.5232    9.3708 C.2     1  UNL1        0.3799
     29 N          68.4688   93.8794    8.3133 N.2     1  UNL1       -0.0106
     30 C          68.5552   92.4131    8.6178 C.2     1  UNL1        0.3351
     31 N          67.7618   92.1508    9.8635 N.2     1  UNL1       -0.2103
     32 C          67.1850   93.4550   10.3289 C.3     1  UNL1        0.2404
@<TRIPOS>BOND
     1    13    14    1
     2    14    15    1
     3    14    16   am
     4    16    17    2
     5    16     7    1
     6     7     8   ar
     7     8     9   ar
     8     9    10   ar
     9    10    11   ar
    10    11     1    1
    11     1     2   am
    12     2     3    2
    13     2     4   am
    14     4    18    1
    15    18    19   ar
    16    19    20   ar
    17    20    21   ar
    18    21    24    1
    19    24    25    2
    20    25    26    1
    21    26    27    2
    22    27    28    1
    23    28    29    2
    24    29    30    1
    25    30    31    2
    26    31    32    1
    27    21    22   ar
    28    22    23   ar
    29    11    12   ar
    30    12     7   ar
    31    23    18   ar
    32    32    24    1
    33    32    28    1
    34     1     5    1
    35     4     6    1
@<TRIPOS>MOLECULE
*****
 32 35 0 0 0
SMALL
GASTEIGER

@<TRIPOS>ATOM
      1 N          58.8804   90.5705    6.3682 N.am    1  UNL1       -0.2681
      2 C          59.7304   90.9920    5.2065 C.2     1  UNL1        0.3082
      3 O          61.0391   90.3065    4.9470 O.2     1  UNL1       -0.2522
      4 N          59.2718   92.0991    4.3042 N.am    1  UNL1       -0.2681
      5 H          58.0215   91.0205    6.5385 H       1  UNL1        0.1564
      6 H          58.4129   92.5491    4.4745 H       1  UNL1        0.1564
      7 C          60.2522   88.6658    9.5683 C.ar    1  UNL1        0.0548
      8 C          60.2561   87.2492    9.0749 C.ar    1  UNL1        0.0046
      9 C          59.8013   86.9397    7.6794 C.ar    1  UNL1        0.0014
     10 C          59.3428   88.0469    6.7772 C.ar    1  UNL1        0.0147
     11 C          59.3390   89.4634    7.2705 C.ar    1  UNL1        0.0517
     12 C          59.7937   89.7729    8.6660 C.ar    1  UNL1        0.0192
     13 C          62.4669   89.9891   12.5839 C.3     1  UNL1        0.1152
     14 N          62.0122   89.6796   11.1884 N.am    1  UNL1       -0.2726
     15 C          62.8626   90.0745   10.0176 C.3     1  UNL1        0.1152
     16 C          60.7070   88.9752   10.9637 C.2     1  UNL1        0.2492
     17 O          59.8566   88.5804   12.1345 O.2     1  UNL1       -0.2699
     18 C          60.1218   92.5206    3.1425 C.ar    1  UNL1        0.0516
     19 C          59.4831   93.1151    1.9223 C.ar    1  UNL1        0.0147
     20 C          60.3331   93.5366    0.7606 C.ar    1  UNL1        0.0010
     21 C          61.8220   93.3636    0.8189 C.ar    1  UNL1       -0.0014
     22 C          62.4608   92.7692    2.0390 C.ar    1  UNL1        0.0010
     23 C          61.6107   92.3477    3.2008 C.ar    1  UNL1        0.0147
     24 C          62.6721   93.7852   -0.3428 C.2     1  UNL1        0.0158
     25 C          62.4163   93.2134   -1.7058 C.2     1  UNL1        0.0487
     26 C          63.2663   93.6349   -2.8675 C.2     1  UNL1        0.2355
     27 N          64.3722   94.6282   -2.6664 N.2     1  UNL1       -0.0325
     28 C          64.6280   95.2000   -1.3035 C.2     1  UNL1        0.3799
     29 N          65.6384   96.1896   -0.8037 N.2     1  UNL1       -0.0106
     30 C          65.4128   96.3797    0.6670 C.2     1  UNL1        0.3351
     31 N          64.2630   95.5076    1.0762 N.2     1  UNL1       -0.2103
     32 C          63.7779   94.7784   -0.1417 C.3     1  UNL1        0.2404
@<TRIPOS>BOND
     1    13    14    1
     2    14    15    1
     3    14    16   am
     4    16    17    2
     5    16     7    1
     6     7     8   ar
     7     8     9   ar
     8     9    10   ar
     9    10    11   ar
    10    11     1    1
    11     1     2   am
    12     2     3    2
    13     2     4   am
    14     4    18    1
    15    18    19   ar
    16    19    20   ar
    17    20    21   ar
    18    21    24    1
    19    24    25    2
    20    25    26    1
    21    26    27    2
    22    27    28    1
    23    28    29    2
    24    29    30    1
    25    30    31    2
    26    31    32    1
    27    21    22   ar
    28    22    23   ar
    29    11    12   ar
    30    12     7   ar
    31    23    18   ar
    32    32    24    1
    33    32    28    1
    34     1     5    1
    35     4     6    1
@<TRIPOS>MOLECULE
*****
 32 35 0 0 0
SMALL
GASTEIGER

@<TRIPOS>ATOM
      1 N          58.9026   90.4071    6.1848 N.am    1  UNL1       -0.2681
      2 C          59.8872   91.0145    5.2302 C.2     1  UNL1        0.3082
      3 O          61.3136   90.5504    5.2275 O.2     1  UNL1       -0.2522
      4 N          59.4455   92.0862    4.2780 N.am    1  UNL1       -0.2681
      5 H          57.9665   90.7117    6.1865 H       1  UNL1        0.1564
      6 H          58.5093   92.3909    4.2797 H       1  UNL1        0.1564
      7 C          60.1967   88.6242    9.4859 C.ar    1  UNL1        0.0548
      8 C          60.2277   87.1920    9.0410 C.ar    1  UNL1        0.0046
      9 C          59.8171   86.8315    7.6440 C.ar    1  UNL1        0.0014
     10 C          59.3754   87.9032    6.6920 C.ar    1  UNL1        0.0147
     11 C          59.3444   89.3354    7.1369 C.ar    1  UNL1        0.0517
     12 C          59.7550   89.6959    8.5338 C.ar    1  UNL1        0.0192
     13 C          62.2996   90.0877   12.5167 C.3     1  UNL1        0.1152
     14 N          61.8890   89.7272   11.1198 N.am    1  UNL1       -0.2726
     15 C          62.7599   90.1091    9.9599 C.3     1  UNL1        0.1152
     16 C          60.6073   88.9847   10.8828 C.2     1  UNL1        0.2492
     17 O          59.7363   88.6027   12.0427 O.2     1  UNL1       -0.2699
     18 C          60.4301   92.6937    3.3234 C.ar    1  UNL1        0.0516
     19 C          60.0753   93.9442    2.5747 C.ar    1  UNL1        0.0147
     20 C          61.0599   94.5516    1.6201 C.ar    1  UNL1        0.0010
     21 C          62.3994   93.9087    1.4140 C.ar    1  UNL1       -0.0014
     22 C          62.7543   92.6583    2.1627 C.ar    1  UNL1        0.0010
     23 C          61.7696   92.0508    3.1174 C.ar    1  UNL1        0.0147
     24 C          63.3841   94.5162    0.4594 C.2     1  UNL1        0.0158
     25 C          64.4317   95.4636    0.9643 C.2     1  UNL1        0.0487
     26 C          65.4163   96.0711    0.0097 C.2     1  UNL1        0.2355
     27 N          65.3533   95.7313   -1.4500 N.2     1  UNL1       -0.0325
     28 C          64.3057   94.7840   -1.9550 C.2     1  UNL1        0.3799
     29 N          64.0001   94.2650   -3.3287 N.2     1  UNL1       -0.0106
     30 C          62.8266   93.3367   -3.2231 C.2     1  UNL1        0.3351
     31 N          62.4069   93.2820   -1.7840 N.2     1  UNL1       -0.2103
     32 C          63.3211   94.1764   -1.0003 C.3     1  UNL1        0.2404
@<TRIPOS>BOND
     1    13    14    1
     2    14    15    1
     3    14    16   am
     4    16    17    2
     5    16     7    1
     6     7     8   ar
     7     8     9   ar
     8     9    10   ar
     9    10    11   ar
    10    11     1    1
    11     1     2   am
    12     2     3    2
    13     2     4   am
    14     4    18    1
    15    18    19   ar
    16    19    20   ar
    17    20    21   ar
    18    21    24    1
    19    24    25    2
    20    25    26    1
    21    26    27    2
    22    27    28    1
    23    28    29    2
    24    29    30    1
    25    30    31    2
    26    31    32    1
    27    21    22   ar
    28    22    23   ar
    29    11    12   ar
    30    12     7   ar
    31    23    18   ar
    32    32    24    1
    33    32    28    1
    34     1     5    1
    35     4     6    1
@<TRIPOS>MOLECULE
*****
 32 35 0 0 0
SMALL
GASTEIGER

@<TRIPOS>ATOM
      1 N          64.6441   91.1074   15.6545 N.am    1  UNL1       -0.2681
      2 C          64.6061   89.8087   14.9051 C.2     1  UNL1        0.3082
      3 O          65.5545   89.5711   13.7676 O.2     1  UNL1       -0.2522
      4 N          63.6196   88.7473   15.2932 N.am    1  UNL1       -0.2681
      5 H          64.0216   91.2632   16.4012 H       1  UNL1        0.1564
      6 H          62.9971   88.9031   16.0398 H       1  UNL1        0.1564
      7 C          66.5126   93.8973   13.5390 C.ar    1  UNL1        0.0548
      8 C          67.6033   94.2914   14.4904 C.ar    1  UNL1        0.0046
      9 C          67.7076   93.6242   15.8298 C.ar    1  UNL1        0.0014
     10 C          66.7211   92.5629   16.2178 C.ar    1  UNL1        0.0147
     11 C          65.6305   92.1688   15.2664 C.ar    1  UNL1        0.0517
     12 C          65.5262   92.8359   13.9271 C.ar    1  UNL1        0.0192
     13 C          66.6445   94.4693    9.6140 C.3     1  UNL1        0.1152
     14 N          66.7488   93.8021   10.9534 N.am    1  UNL1       -0.2726
     15 C          67.1934   92.3726   11.0467 C.3     1  UNL1        0.1152
     16 C          66.4083   94.5644   12.1997 C.2     1  UNL1        0.2492
     17 O          65.9637   95.9939   12.1064 O.2     1  UNL1       -0.2699
     18 C          63.5817   87.4486   14.5438 C.ar    1  UNL1        0.0516
     19 C          63.9974   86.1778   15.2238 C.ar    1  UNL1        0.0147
     20 C          63.9594   84.8790   14.4744 C.ar    1  UNL1        0.0010
     21 C          63.5057   84.8510   13.0448 C.ar    1  UNL1       -0.0014
     22 C          63.0900   86.1217   12.3648 C.ar    1  UNL1        0.0010
     23 C          63.1280   87.4205   13.1144 C.ar    1  UNL1        0.0147
     24 C          63.4677   83.5521   12.2954 C.2     1  UNL1        0.0158
     25 C          64.0957   83.4515   10.9369 C.2     1  UNL1        0.0487
     26 C          64.0578   82.1527   10.1875 C.2     1  UNL1        0.2355
     27 N          63.3918   80.9545   10.7965 N.2     1  UNL1       -0.0325
     28 C          62.7638   81.0552   12.1550 C.2     1  UNL1        0.3799
     29 N          62.0416   80.0512   13.0037 N.2     1  UNL1       -0.0106
     30 C          61.6332   80.7295   14.2777 C.2     1  UNL1        0.3351
     31 N          62.1030   82.1527   14.2164 N.2     1  UNL1       -0.2103
     32 C          62.8018   82.3540   12.9044 C.3     1  UNL1        0.2404
@<TRIPOS>BOND
     1    13    14    1
     2    14    15    1
     3    14    16   am
     4    16    17    2
     5    16     7    1
     6     7     8   ar
     7     8     9   ar
     8     9    10   ar
     9    10    11   ar
    10    11     1    1
    11     1     2   am
    12     2     3    2
    13     2     4   am
    14     4    18    1
    15    18    19   ar
    16    19    20   ar
    17    20    21   ar
    18    21    24    1
    19    24    25    2
    20    25    26    1
    21    26    27    2
    22    27    28    1
    23    28    29    2
    24    29    30    1
    25    30    31    2
    26    31    32    1
    27    21    22   ar
    28    22    23   ar
    29    11    12   ar
    30    12     7   ar
    31    23    18   ar
    32    32    24    1
    33    32    28    1
    34     1     5    1
    35     4     6    1
@<TRIPOS>MOLECULE
*****
 32 35 0 0 0
SMALL
GASTEIGER

@<TRIPOS>ATOM
      1 N          58.9505   91.7204    4.0489 N.am    1  UNL1       -0.2681
      2 C          59.6460   90.9206    5.1102 C.2     1  UNL1        0.3082
      3 O          61.1394   90.7819    5.0870 O.2     1  UNL1       -0.2522
      4 N          58.8482   90.2594    6.1948 N.am    1  UNL1       -0.2681
      5 H          57.9703   91.8113    4.0641 H       1  UNL1        0.1564
      6 H          57.8680   90.3504    6.2101 H       1  UNL1        0.1564
      7 C          59.8697   93.4910    0.6181 C.ar    1  UNL1        0.0548
      8 C          61.3440   93.7039    0.7951 C.ar    1  UNL1        0.0046
      9 C          62.0204   93.2557    2.0567 C.ar    1  UNL1        0.0014
     10 C          61.2225   92.5945    3.1413 C.ar    1  UNL1        0.0147
     11 C          59.7483   92.3816    2.9642 C.ar    1  UNL1        0.0517
     12 C          59.0719   92.8298    1.7027 C.ar    1  UNL1        0.0192
     13 C          58.2008   95.8392   -2.1115 C.3     1  UNL1        0.1152
     14 N          58.8772   95.3909   -0.8499 N.am    1  UNL1       -0.2726
     15 C          59.2374   96.3944    0.2052 C.3     1  UNL1        0.1152
     16 C          59.1933   93.9392   -0.6434 C.2     1  UNL1        0.2492
     17 O          58.8331   92.9357   -1.6985 O.2     1  UNL1       -0.2699
     18 C          59.5437   89.4596    7.2561 C.ar    1  UNL1        0.0516
     19 C          59.4515   87.9624    7.2484 C.ar    1  UNL1        0.0147
     20 C          60.1470   87.1626    8.3097 C.ar    1  UNL1        0.0010
     21 C          60.9349   87.8600    9.3789 C.ar    1  UNL1       -0.0014
     22 C          61.0272   89.3571    9.3866 C.ar    1  UNL1        0.0010
     23 C          60.3316   90.1569    8.3252 C.ar    1  UNL1        0.0147
     24 C          61.6305   87.0601   10.4402 C.2     1  UNL1        0.0158
     25 C          61.5458   85.5626   10.4271 C.2     1  UNL1        0.0487
     26 C          62.2413   84.7628   11.4884 C.2     1  UNL1        0.2355
     27 N          63.0216   85.4604   12.5629 N.2     1  UNL1       -0.0325
     28 C          63.1063   86.9580   12.5760 C.2     1  UNL1        0.3799
     29 N          63.7962   87.9162   13.5012 N.2     1  UNL1       -0.0106
     30 C          63.5270   89.3082   13.0116 C.2     1  UNL1        0.3351
     31 N          62.6708   89.2104   11.7839 N.2     1  UNL1       -0.2103
     32 C          62.4107   87.7578   11.5147 C.3     1  UNL1        0.2404
@<TRIPOS>BOND
     1    13    14    1
     2    14    15    1
     3    14    16   am
     4    16    17    2
     5    16     7    1
     6     7     8   ar
     7     8     9   ar
     8     9    10   ar
     9    10    11   ar
    10    11     1    1
    11     1     2   am
    12     2     3    2
    13     2     4   am
    14     4    18    1
    15    18    19   ar
    16    19    20   ar
    17    20    21   ar
    18    21    24    1
    19    24    25    2
    20    25    26    1
    21    26    27    2
    22    27    28    1
    23    28    29    2
    24    29    30    1
    25    30    31    2
    26    31    32    1
    27    21    22   ar
    28    22    23   ar
    29    11    12   ar
    30    12     7   ar
    31    23    18   ar
    32    32    24    1
    33    32    28    1
    34     1     5    1
    35     4     6    1
@<TRIPOS>MOLECULE
*****
 32 35 0 0 0
SMALL
GASTEIGER

@<TRIPOS>ATOM
      1 N          59.6793   94.3655    0.8110 N.am    1  UNL1       -0.2681
      2 C          59.7242   93.2244    1.7834 C.2     1  UNL1        0.3082
      3 O          60.0173   91.8359    1.2975 O.2     1  UNL1       -0.2522
      4 N          59.4760   93.4717    3.2420 N.am    1  UNL1       -0.2681
      5 H          59.4869   95.2768    1.1300 H       1  UNL1        0.1564
      6 H          59.2837   94.3830    3.5610 H       1  UNL1        0.1564
      7 C          59.0497   93.4319   -2.9946 C.ar    1  UNL1        0.0548
      8 C          60.4239   93.6236   -3.5646 C.ar    1  UNL1        0.0046
      9 C          61.5499   94.0627   -2.6760 C.ar    1  UNL1        0.0014
     10 C          61.3016   94.3099   -1.2175 C.ar    1  UNL1        0.0147
     11 C          59.9275   94.1182   -0.6476 C.ar    1  UNL1        0.0517
     12 C          58.8015   93.6792   -1.5360 C.ar    1  UNL1        0.0192
     13 C          55.9645   93.5758   -5.4868 C.3     1  UNL1        0.1152
     14 N          57.0905   94.0148   -4.5983 N.am    1  UNL1       -0.2726
     15 C          57.3833   95.4756   -4.4249 C.3     1  UNL1        0.1152
     16 C          57.9238   92.9929   -3.8830 C.2     1  UNL1        0.2492
     17 O          57.6310   91.5320   -4.0564 O.2     1  UNL1       -0.2699
     18 C          59.5210   92.3306    4.2145 C.ar    1  UNL1        0.0516
     19 C          58.2562   91.8414    4.8557 C.ar    1  UNL1        0.0147
     20 C          58.3011   90.7003    5.8282 C.ar    1  UNL1        0.0010
     21 C          59.6109   90.0483    6.1595 C.ar    1  UNL1       -0.0014
     22 C          60.8756   90.5375    5.5183 C.ar    1  UNL1        0.0010
     23 C          60.8306   91.6787    4.5458 C.ar    1  UNL1        0.0147
     24 C          59.6558   88.9072    7.1320 C.2     1  UNL1        0.0158
     25 C          59.4053   87.5066    6.6570 C.2     1  UNL1        0.0487
     26 C          59.4502   86.3655    7.6294 C.2     1  UNL1        0.2355
     27 N          59.7456   86.6249    9.0771 N.2     1  UNL1       -0.0325
     28 C          59.9960   88.0254    9.5521 C.2     1  UNL1        0.3799
     29 N          60.3096   88.5842   10.9084 N.2     1  UNL1       -0.0106
     30 C          60.4585   90.0708   10.7740 C.2     1  UNL1        0.3351
     31 N          60.2369   90.4307    9.3348 N.2     1  UNL1       -0.2103
     32 C          59.9511   89.1666    8.5796 C.3     1  UNL1        0.2404
@<TRIPOS>BOND
     1    13    14    1
     2    14    15    1
     3    14    16   am
     4    16    17    2
     5    16     7    1
     6     7     8   ar
     7     8     9   ar
     8     9    10   ar
     9    10    11   ar
    10    11     1    1
    11     1     2   am
    12     2     3    2
    13     2     4   am
    14     4    18    1
    15    18    19   ar
    16    19    20   ar
    17    20    21   ar
    18    21    24    1
    19    24    25    2
    20    25    26    1
    21    26    27    2
    22    27    28    1
    23    28    29    2
    24    29    30    1
    25    30    31    2
    26    31    32    1
    27    21    22   ar
    28    22    23   ar
    29    11    12   ar
    30    12     7   ar
    31    23    18   ar
    32    32    24    1
    33    32    28    1
    34     1     5    1
    35     4     6    1
@<TRIPOS>MOLECULE
*****
 32 35 0 0 0
SMALL
GASTEIGER

@<TRIPOS>ATOM
      1 N          64.3799   90.7927   16.0592 N.am    1  UNL1       -0.2681
      2 C          64.2580   89.4151   15.4786 C.2     1  UNL1        0.3082
      3 O          65.1153   89.0129   14.3154 O.2     1  UNL1       -0.2522
      4 N          63.2788   88.4395   16.0613 N.am    1  UNL1       -0.2681
      5 H          63.8172   91.0567   16.8227 H       1  UNL1        0.1564
      6 H          62.7161   88.7035   16.8248 H       1  UNL1        0.1564
      7 C          66.3877   92.9616   13.4106 C.ar    1  UNL1        0.0548
      8 C          67.3176   93.7194   14.3113 C.ar    1  UNL1        0.0046
      9 C          67.2682   93.5015   15.7946 C.ar    1  UNL1        0.0014
     10 C          66.2890   92.5260   16.3772 C.ar    1  UNL1        0.0147
     11 C          65.3592   91.7683   15.4765 C.ar    1  UNL1        0.0517
     12 C          65.4085   91.9860   13.9933 C.ar    1  UNL1        0.0192
     13 C          67.5321   92.7071    9.6190 C.3     1  UNL1        0.1152
     14 N          67.4827   92.4893   11.1023 N.am    1  UNL1       -0.2726
     15 C          68.4789   91.5816   11.7607 C.3     1  UNL1        0.1152
     16 C          66.4371   93.1794   11.9274 C.2     1  UNL1        0.2492
     17 O          65.4409   94.0872   11.2690 O.2     1  UNL1       -0.2699
     18 C          63.1569   87.0619   15.4808 C.ar    1  UNL1        0.0516
     19 C          62.5232   85.9636   16.2822 C.ar    1  UNL1        0.0147
     20 C          62.4013   84.5860   15.7017 C.ar    1  UNL1        0.0010
     21 C          62.9131   84.3065   14.3196 C.ar    1  UNL1       -0.0014
     22 C          63.5467   85.4047   13.5181 C.ar    1  UNL1        0.0010
     23 C          63.6686   86.7824   14.0988 C.ar    1  UNL1        0.0147
     24 C          62.7911   82.9288   13.7390 C.2     1  UNL1        0.0158
     25 C          62.2198   81.8147   14.5650 C.2     1  UNL1        0.0487
     26 C          62.0979   80.4370   13.9846 C.2     1  UNL1        0.2355
     27 N          62.5473   80.1733   12.5779 N.2     1  UNL1       -0.0325
     28 C          63.1186   81.2874   11.7519 C.2     1  UNL1        0.3799
     29 N          63.6414   81.3286   10.3465 N.2     1  UNL1       -0.0106
     30 C          64.0864   82.7318   10.0585 C.2     1  UNL1        0.3351
     31 N          63.8387   83.5579   11.2859 N.2     1  UNL1       -0.2103
     32 C          63.2405   82.6651   12.3324 C.3     1  UNL1        0.2404
@<TRIPOS>BOND
     1    13    14    1
     2    14    15    1
     3    14    16   am
     4    16    17    2
     5    16     7    1
     6     7     8   ar
     7     8     9   ar
     8     9    10   ar
     9    10    11   ar
    10    11     1    1
    11     1     2   am
    12     2     3    2
    13     2     4   am
    14     4    18    1
    15    18    19   ar
    16    19    20   ar
    17    20    21   ar
    18    21    24    1
    19    24    25    2
    20    25    26    1
    21    26    27    2
    22    27    28    1
    23    28    29    2
    24    29    30    1
    25    30    31    2
    26    31    32    1
    27    21    22   ar
    28    22    23   ar
    29    11    12   ar
    30    12     7   ar
    31    23    18   ar
    32    32    24    1
    33    32    28    1
    34     1     5    1
    35     4     6    1
@<TRIPOS>MOLECULE
*****
 32 35 0 0 0
SMALL
GASTEIGER

@<TRIPOS>ATOM
      1 N          60.5609   94.4282    1.1976 N.am    1  UNL1       -0.2681
      2 C          60.6170   93.3711    2.2603 C.2     1  UNL1        0.3082
      3 O          61.8786   92.5885    2.4737 O.2     1  UNL1       -0.2522
      4 N          59.4114   93.0966    3.1095 N.am    1  UNL1       -0.2681
      5 H          59.7328   94.9419    1.0576 H       1  UNL1        0.1564
      6 H          58.5833   93.6103    2.9694 H       1  UNL1        0.1564
      7 C          63.0503   94.4247   -1.8932 C.ar    1  UNL1        0.0548
      8 C          64.1777   95.2519   -1.3500 C.ar    1  UNL1        0.0046
      9 C          64.0995   95.8044    0.0423 C.ar    1  UNL1        0.0014
     10 C          62.8939   95.5298    0.8915 C.ar    1  UNL1        0.0147
     11 C          61.7665   94.7028    0.3484 C.ar    1  UNL1        0.0517
     12 C          61.8447   94.1502   -1.0439 C.ar    1  UNL1        0.0192
     13 C          62.6885   94.1231   -5.8338 C.3     1  UNL1        0.1152
     14 N          62.6103   94.6756   -4.4414 N.am    1  UNL1       -0.2726
     15 C          62.0138   96.0314   -4.2049 C.3     1  UNL1        0.1152
     16 C          63.1285   93.8723   -3.2855 C.2     1  UNL1        0.2492
     17 O          63.7250   92.5164   -3.5219 O.2     1  UNL1       -0.2699
     18 C          59.4674   92.0395    4.1722 C.ar    1  UNL1        0.0516
     19 C          60.7869   91.4510    4.5758 C.ar    1  UNL1        0.0147
     20 C          60.8429   90.3939    5.6384 C.ar    1  UNL1        0.0010
     21 C          59.5796   89.9252    6.2975 C.ar    1  UNL1       -0.0014
     22 C          58.2602   90.5137    5.8940 C.ar    1  UNL1        0.0010
     23 C          58.2042   91.5708    4.8313 C.ar    1  UNL1        0.0147
     24 C          59.6357   88.8680    7.3602 C.2     1  UNL1        0.0158
     25 C          59.3670   87.4351    7.0075 C.2     1  UNL1        0.0487
     26 C          59.4231   86.3780    8.0701 C.2     1  UNL1        0.2355
     27 N          59.7479   86.7537    9.4856 N.2     1  UNL1       -0.0325
     28 C          60.0166   88.1867    9.8383 C.2     1  UNL1        0.3799
     29 N          60.3599   88.8531   11.1375 N.2     1  UNL1       -0.0106
     30 C          60.5159   90.3222   10.8778 C.2     1  UNL1        0.3351
     31 N          60.2691   90.5637    9.4180 N.2     1  UNL1       -0.2103
     32 C          59.9605   89.2438    8.7756 C.3     1  UNL1        0.2404
@<TRIPOS>BOND
     1    13    14    1
     2    14    15    1
     3    14    16   am
     4    16    17    2
     5    16     7    1
     6     7     8   ar
     7     8     9   ar
     8     9    10   ar
     9    10    11   ar
    10    11     1    1
    11     1     2   am
    12     2     3    2
    13     2     4   am
    14     4    18    1
    15    18    19   ar
    16    19    20   ar
    17    20    21   ar
    18    21    24    1
    19    24    25    2
    20    25    26    1
    21    26    27    2
    22    27    28    1
    23    28    29    2
    24    29    30    1
    25    30    31    2
    26    31    32    1
    27    21    22   ar
    28    22    23   ar
    29    11    12   ar
    30    12     7   ar
    31    23    18   ar
    32    32    24    1
    33    32    28    1
    34     1     5    1
    35     4     6    1
@<TRIPOS>MOLECULE
*****
 32 35 0 0 0
SMALL
GASTEIGER

@<TRIPOS>ATOM
      1 N          61.8184   86.0592   12.7680 N.am    1  UNL1       -0.2681
      2 C          62.6811   87.2516   12.4788 C.2     1  UNL1        0.3082
      3 O          64.1612   87.1808   12.7118 O.2     1  UNL1       -0.2522
      4 N          62.0637   88.5150   11.9564 N.am    1  UNL1       -0.2681
      5 H          60.8470   86.1057   12.6151 H       1  UNL1        0.1564
      6 H          61.0923   88.5615   11.8035 H       1  UNL1        0.1564
      7 C          62.9171   82.2552   13.0380 C.ar    1  UNL1        0.0548
      8 C          63.6705   82.2691   14.3351 C.ar    1  UNL1        0.0046
      9 C          63.8065   83.5464   15.1098 C.ar    1  UNL1        0.0014
     10 C          63.1891   84.8097   14.5874 C.ar    1  UNL1        0.0147
     11 C          62.4358   84.7957   13.2904 C.ar    1  UNL1        0.0517
     12 C          62.2998   83.5186   12.5157 C.ar    1  UNL1        0.0192
     13 C          63.0922   79.6399   10.0581 C.3     1  UNL1        0.1152
     14 N          63.2282   80.9172   10.8328 N.am    1  UNL1       -0.2726
     15 C          63.8112   82.1337   10.1770 C.3     1  UNL1        0.1152
     16 C          62.7811   80.9780   12.2634 C.2     1  UNL1        0.2492
     17 O          62.1981   79.7615   12.9193 O.2     1  UNL1       -0.2699
     18 C          62.9264   89.7074   11.6672 C.ar    1  UNL1        0.0516
     19 C          63.8150   90.2678   12.7379 C.ar    1  UNL1        0.0147
     20 C          64.6777   91.4602   12.4487 C.ar    1  UNL1        0.0010
     21 C          64.6519   92.0924   11.0886 C.ar    1  UNL1       -0.0014
     22 C          63.7633   91.5321   10.0178 C.ar    1  UNL1        0.0010
     23 C          62.9006   90.3396   10.3072 C.ar    1  UNL1        0.0147
     24 C          65.5146   93.2849   10.7993 C.2     1  UNL1        0.0158
     25 C          65.0087   94.6659   11.0944 C.2     1  UNL1        0.0487
     26 C          65.8714   95.8583   10.8052 C.2     1  UNL1        0.2355
     27 N          67.2400   95.6699   10.2208 N.2     1  UNL1       -0.0325
     28 C          67.7459   94.2890    9.9257 C.2     1  UNL1        0.3799
     29 N          69.0417   93.7958    9.3535 N.2     1  UNL1       -0.0106
     30 C          68.9799   92.2985    9.2890 C.2     1  UNL1        0.3351
     31 N          67.6458   91.8663    9.8215 N.2     1  UNL1       -0.2103
     32 C          66.8832   93.0965   10.2150 C.3     1  UNL1        0.2404
@<TRIPOS>BOND
     1    13    14    1
     2    14    15    1
     3    14    16   am
     4    16    17    2
     5    16     7    1
     6     7     8   ar
     7     8     9   ar
     8     9    10   ar
     9    10    11   ar
    10    11     1    1
    11     1     2   am
    12     2     3    2
    13     2     4   am
    14     4    18    1
    15    18    19   ar
    16    19    20   ar
    17    20    21   ar
    18    21    24    1
    19    24    25    2
    20    25    26    1
    21    26    27    2
    22    27    28    1
    23    28    29    2
    24    29    30    1
    25    30    31    2
    26    31    32    1
    27    21    22   ar
    28    22    23   ar
    29    11    12   ar
    30    12     7   ar
    31    23    18   ar
    32    32    24    1
    33    32    28    1
    34     1     5    1
    35     4     6    1
