@<TRIPOS>MOLECULE
*****
 22 24 0 0 0
SMALL
GASTEIGER

@<TRIPOS>ATOM
      1 C          66.8210   92.2137   13.8551 C.ar    1  UNL1        0.1387
      2 C          66.0988   91.4098   14.8954 C.ar    1  UNL1        0.0369
      3 C          64.7886   90.7589   14.5643 C.ar    1  UNL1        0.0031
      4 C          64.2006   90.9117   13.1928 C.ar    1  UNL1        0.0003
      5 C          62.8904   90.2608   12.8617 C.ar    1  UNL1        0.0032
      6 C          62.3023   90.4136   11.4903 C.ar    1  UNL1        0.0390
      7 C          63.0245   91.2175   10.4499 C.ar    1  UNL1        0.0032
      8 C          64.3347   91.8685   10.7810 C.ar    1  UNL1        0.0002
      9 C          64.9228   91.7156   12.1525 C.ar    1  UNL1        0.0030
     10 C          66.2330   92.3665   12.4836 C.ar    1  UNL1        0.0369
     11 C          68.7293   92.6947   15.5512 C.3     1  UNL1        0.2525
     12 O          68.1312   92.8646   14.1862 O.3     1  UNL1       -0.4714
     13 C          60.9921   89.7627   11.1592 C.2     1  UNL1        0.1956
     14 O          59.7703   90.0821   11.9685 O.2     1  UNL1       -0.2866
     15 C          60.9038   88.7923   10.0187 C.2     1  UNL1        0.0421
     16 C          61.7282   87.5392   10.0347 C.2     1  UNL1        0.0048
     17 C          61.6399   86.5688    8.8943 C.ar    1  UNL1        0.0193
     18 C          62.8338   85.7417    8.5192 C.ar    1  UNL1        0.0031
     19 C          62.7455   84.7713    7.3788 C.ar    1  UNL1        0.0207
     20 C          61.4634   84.6280    6.6134 C.ar    1  UNL1        0.0989
     21 N          60.2696   85.4552    6.9885 N.ar    1  UNL1       -0.2423
     22 C          60.3579   86.4256    8.1289 C.ar    1  UNL1        0.0988
@<TRIPOS>BOND
     1    11    12    1
     2    12     1    1
     3     1     2   ar
     4     2     3   ar
     5     3     4   ar
     6     4     5   ar
     7     5     6   ar
     8     6    13    1
     9    13    14    2
    10    13    15    1
    11    15    16    2
    12    16    17    1
    13    17    18   ar
    14    18    19   ar
    15    19    20   ar
    16    20    21   ar
    17    21    22   ar
    18     6     7   ar
    19     7     8   ar
    20     8     9   ar
    21     9    10   ar
    22    10     1   ar
    23     9     4   ar
    24    22    17   ar
@<TRIPOS>MOLECULE
*****
 22 24 0 0 0
SMALL
GASTEIGER

@<TRIPOS>ATOM
      1 C          65.1351   91.7917   13.8560 C.ar    1  UNL1        0.1387
      2 C          65.0984   90.5512   14.6984 C.ar    1  UNL1        0.0369
      3 C          64.3914   89.3261   14.1990 C.ar    1  UNL1        0.0031
      4 C          63.7211   89.3416   12.8572 C.ar    1  UNL1        0.0003
      5 C          63.0141   88.1166   12.3578 C.ar    1  UNL1        0.0032
      6 C          62.3437   88.1321   11.0161 C.ar    1  UNL1        0.0390
      7 C          62.3804   89.3727   10.1736 C.ar    1  UNL1        0.0032
      8 C          63.0874   90.5978   10.6730 C.ar    1  UNL1        0.0002
      9 C          63.7577   90.5822   12.0149 C.ar    1  UNL1        0.0030
     10 C          64.4648   91.8073   12.5143 C.ar    1  UNL1        0.0369
     11 C          66.7733   92.9199   15.5274 C.3     1  UNL1        0.2525
     12 O          65.8421   93.0168   14.3554 O.3     1  UNL1       -0.4714
     13 C          61.6367   86.9071   10.5167 C.2     1  UNL1        0.1956
     14 O          60.9506   86.9284    9.1830 O.2     1  UNL1       -0.2866
     15 C          61.6159   85.6606   11.3510 C.2     1  UNL1        0.0421
     16 C          62.8139   84.7586   11.3817 C.2     1  UNL1        0.0048
     17 C          62.7931   83.5122   12.2160 C.ar    1  UNL1        0.0193
     18 C          62.8150   82.1662   11.5542 C.ar    1  UNL1        0.0031
     19 C          62.7942   80.9198   12.3885 C.ar    1  UNL1        0.0207
     20 C          62.7515   81.0193   13.8845 C.ar    1  UNL1        0.0989
     21 N          62.7295   82.3652   14.5463 N.ar    1  UNL1       -0.2423
     22 C          62.7503   83.6117   13.7121 C.ar    1  UNL1        0.0988
@<TRIPOS>BOND
     1    11    12    1
     2    12     1    1
     3     1     2   ar
     4     2     3   ar
     5     3     4   ar
     6     4     5   ar
     7     5     6   ar
     8     6    13    1
     9    13    14    2
    10    13    15    1
    11    15    16    2
    12    16    17    1
    13    17    18   ar
    14    18    19   ar
    15    19    20   ar
    16    20    21   ar
    17    21    22   ar
    18     6     7   ar
    19     7     8   ar
    20     8     9   ar
    21     9    10   ar
    22    10     1   ar
    23     9     4   ar
    24    22    17   ar
@<TRIPOS>MOLECULE
*****
 22 24 0 0 0
SMALL
GASTEIGER

@<TRIPOS>ATOM
      1 C          62.7619   84.2423   12.1474 C.ar    1  UNL1        0.1387
      2 C          62.2053   85.1232   11.0684 C.ar    1  UNL1        0.0369
      3 C          62.3512   86.6128   11.1666 C.ar    1  UNL1        0.0031
      4 C          63.0535   87.2216   12.3439 C.ar    1  UNL1        0.0003
      5 C          63.1993   88.7113   12.4422 C.ar    1  UNL1        0.0032
      6 C          63.9016   89.3201   13.6195 C.ar    1  UNL1        0.0390
      7 C          64.4582   88.4392   14.6986 C.ar    1  UNL1        0.0032
      8 C          64.3124   86.9495   14.6003 C.ar    1  UNL1        0.0002
      9 C          63.6100   86.3407   13.4229 C.ar    1  UNL1        0.0030
     10 C          63.4642   84.8511   13.3247 C.ar    1  UNL1        0.0369
     11 C          63.6670   81.8560   12.6335 C.3     1  UNL1        0.2525
     12 O          62.6160   82.7526   12.0491 O.3     1  UNL1       -0.4714
     13 C          64.0475   90.8097   13.7177 C.2     1  UNL1        0.1956
     14 O          63.6198   91.5245   14.9652 O.2     1  UNL1       -0.2866
     15 C          64.6210   91.5846   12.5685 C.2     1  UNL1        0.0421
     16 C          65.9531   92.2596   12.7095 C.2     1  UNL1        0.0048
     17 C          66.5266   93.0345   11.5603 C.ar    1  UNL1        0.0193
     18 C          67.4001   92.3465   10.5534 C.ar    1  UNL1        0.0031
     19 C          67.9736   93.1214    9.4042 C.ar    1  UNL1        0.0207
     20 C          67.6737   94.5842    9.2619 C.ar    1  UNL1        0.0989
     21 N          66.8002   95.2721   10.2687 N.ar    1  UNL1       -0.2423
     22 C          66.2266   94.4973   11.4179 C.ar    1  UNL1        0.0988
@<TRIPOS>BOND
     1    11    12    1
     2    12     1    1
     3     1     2   ar
     4     2     3   ar
     5     3     4   ar
     6     4     5   ar
     7     5     6   ar
     8     6    13    1
     9    13    14    2
    10    13    15    1
    11    15    16    2
    12    16    17    1
    13    17    18   ar
    14    18    19   ar
    15    19    20   ar
    16    20    21   ar
    17    21    22   ar
    18     6     7   ar
    19     7     8   ar
    20     8     9   ar
    21     9    10   ar
    22    10     1   ar
    23     9     4   ar
    24    22    17   ar
@<TRIPOS>MOLECULE
*****
 22 24 0 0 0
SMALL
GASTEIGER

@<TRIPOS>ATOM
      1 C          63.5582   84.0147   13.7036 C.ar    1  UNL1        0.1387
      2 C          64.2832   84.4964   14.9252 C.ar    1  UNL1        0.0369
      3 C          64.5142   85.9642   15.1303 C.ar    1  UNL1        0.0031
      4 C          64.0203   86.9504   14.1138 C.ar    1  UNL1        0.0003
      5 C          64.2514   88.4183   14.3189 C.ar    1  UNL1        0.0032
      6 C          63.7574   89.4045   13.3023 C.ar    1  UNL1        0.0390
      7 C          63.0324   88.9228   12.0806 C.ar    1  UNL1        0.0032
      8 C          62.8014   87.4550   11.8755 C.ar    1  UNL1        0.0002
      9 C          63.2954   86.4688   12.8922 C.ar    1  UNL1        0.0030
     10 C          63.0643   85.0009   12.6871 C.ar    1  UNL1        0.0369
     11 C          62.1504   81.8757   14.1425 C.3     1  UNL1        0.2525
     12 O          63.3272   82.5469   13.4985 O.3     1  UNL1       -0.4714
     13 C          63.9885   90.8723   13.5074 C.2     1  UNL1        0.1956
     14 O          63.6251   91.5134   14.8139 O.2     1  UNL1       -0.2866
     15 C          64.5830   91.6991   12.4059 C.2     1  UNL1        0.0421
     16 C          65.9965   92.1890   12.5152 C.2     1  UNL1        0.0048
     17 C          66.5910   93.0157   11.4138 C.ar    1  UNL1        0.0193
     18 C          67.4539   92.3678   10.3718 C.ar    1  UNL1        0.0031
     19 C          68.0484   93.1945    9.2704 C.ar    1  UNL1        0.0207
     20 C          67.7800   94.6691    9.2110 C.ar    1  UNL1        0.0989
     21 N          66.9172   95.3170   10.2529 N.ar    1  UNL1       -0.2423
     22 C          66.3226   94.4903   11.3544 C.ar    1  UNL1        0.0988
@<TRIPOS>BOND
     1    11    12    1
     2    12     1    1
     3     1     2   ar
     4     2     3   ar
     5     3     4   ar
     6     4     5   ar
     7     5     6   ar
     8     6    13    1
     9    13    14    2
    10    13    15    1
    11    15    16    2
    12    16    17    1
    13    17    18   ar
    14    18    19   ar
    15    19    20   ar
    16    20    21   ar
    17    21    22   ar
    18     6     7   ar
    19     7     8   ar
    20     8     9   ar
    21     9    10   ar
    22    10     1   ar
    23     9     4   ar
    24    22    17   ar
@<TRIPOS>MOLECULE
*****
 22 24 0 0 0
SMALL
GASTEIGER

@<TRIPOS>ATOM
      1 C          63.2294   82.6103   12.0984 C.ar    1  UNL1        0.1387
      2 C          62.9060   83.4799   13.2770 C.ar    1  UNL1        0.0369
      3 C          62.5448   84.9209   13.0692 C.ar    1  UNL1        0.0031
      4 C          62.5071   85.4922   11.6828 C.ar    1  UNL1        0.0003
      5 C          62.1459   86.9332   11.4750 C.ar    1  UNL1        0.0032
      6 C          62.1082   87.5046   10.0887 C.ar    1  UNL1        0.0390
      7 C          62.4317   86.6350    8.9100 C.ar    1  UNL1        0.0032
      8 C          62.7929   85.1940    9.1178 C.ar    1  UNL1        0.0002
      9 C          62.8305   84.6226   10.5042 C.ar    1  UNL1        0.0030
     10 C          63.1917   83.1817   10.7120 C.ar    1  UNL1        0.0369
     11 C          62.7203   80.2932   13.1576 C.3     1  UNL1        0.2525
     12 O          63.5906   81.1693   12.3061 O.3     1  UNL1       -0.4714
     13 C          61.7471   88.9455    9.8809 C.2     1  UNL1        0.1956
     14 O          60.3783   89.3123    9.3891 O.2     1  UNL1       -0.2866
     15 C          62.7548   90.0198   10.1649 C.2     1  UNL1        0.0421
     16 C          63.1388   90.3324   11.5808 C.2     1  UNL1        0.0048
     17 C          64.1464   91.4066   11.8649 C.ar    1  UNL1        0.0193
     18 C          64.6648   92.2631   10.7478 C.ar    1  UNL1        0.0031
     19 C          65.6725   93.3373   11.0319 C.ar    1  UNL1        0.0207
     20 C          66.1618   93.5551   12.4330 C.ar    1  UNL1        0.0989
     21 N          65.6434   92.6987   13.5501 N.ar    1  UNL1       -0.2423
     22 C          64.6357   91.6244   13.2660 C.ar    1  UNL1        0.0988
@<TRIPOS>BOND
     1    11    12    1
     2    12     1    1
     3     1     2   ar
     4     2     3   ar
     5     3     4   ar
     6     4     5   ar
     7     5     6   ar
     8     6    13    1
     9    13    14    2
    10    13    15    1
    11    15    16    2
    12    16    17    1
    13    17    18   ar
    14    18    19   ar
    15    19    20   ar
    16    20    21   ar
    17    21    22   ar
    18     6     7   ar
    19     7     8   ar
    20     8     9   ar
    21     9    10   ar
    22    10     1   ar
    23     9     4   ar
    24    22    17   ar
@<TRIPOS>MOLECULE
*****
 22 24 0 0 0
SMALL
GASTEIGER

@<TRIPOS>ATOM
      1 C          63.3947   84.0231   15.2451 C.ar    1  UNL1        0.1387
      2 C          64.0787   84.4785   13.9902 C.ar    1  UNL1        0.0369
      3 C          64.3569   85.9366   13.7744 C.ar    1  UNL1        0.0031
      4 C          63.9512   86.9393   14.8135 C.ar    1  UNL1        0.0003
      5 C          64.2295   88.3974   14.5978 C.ar    1  UNL1        0.0032
      6 C          63.8238   89.4002   15.6369 C.ar    1  UNL1        0.0390
      7 C          63.1398   88.9448   16.8919 C.ar    1  UNL1        0.0032
      8 C          62.8616   87.4868   17.1077 C.ar    1  UNL1        0.0002
      9 C          63.2673   86.4840   16.0685 C.ar    1  UNL1        0.0030
     10 C          62.9891   85.0259   16.2842 C.ar    1  UNL1        0.0369
     11 C          62.4343   81.7653   14.3909 C.3     1  UNL1        0.2525
     12 O          63.1165   82.5650   15.4609 O.3     1  UNL1       -0.4714
     13 C          64.1020   90.8582   15.4211 C.2     1  UNL1        0.1956
     14 O          63.8855   91.8363   16.5375 O.2     1  UNL1       -0.2866
     15 C          64.5968   91.3382   14.0888 C.2     1  UNL1        0.0421
     16 C          66.0025   91.8422   13.9480 C.2     1  UNL1        0.0048
     17 C          66.4973   92.3222   12.6158 C.ar    1  UNL1        0.0193
     18 C          65.6418   93.2273   11.7797 C.ar    1  UNL1        0.0031
     19 C          66.1366   93.7073   10.4475 C.ar    1  UNL1        0.0207
     20 C          67.4868   93.2822    9.9513 C.ar    1  UNL1        0.0989
     21 N          68.3422   92.3771   10.7873 N.ar    1  UNL1       -0.2423
     22 C          67.8475   91.8970   12.1196 C.ar    1  UNL1        0.0988
@<TRIPOS>BOND
     1    11    12    1
     2    12     1    1
     3     1     2   ar
     4     2     3   ar
     5     3     4   ar
     6     4     5   ar
     7     5     6   ar
     8     6    13    1
     9    13    14    2
    10    13    15    1
    11    15    16    2
    12    16    17    1
    13    17    18   ar
    14    18    19   ar
    15    19    20   ar
    16    20    21   ar
    17    21    22   ar
    18     6     7   ar
    19     7     8   ar
    20     8     9   ar
    21     9    10   ar
    22    10     1   ar
    23     9     4   ar
    24    22    17   ar
@<TRIPOS>MOLECULE
*****
 22 24 0 0 0
SMALL
GASTEIGER

@<TRIPOS>ATOM
      1 C          63.4540   82.5601   13.9561 C.ar    1  UNL1        0.1387
      2 C          64.2094   83.2125   15.0758 C.ar    1  UNL1        0.0369
      3 C          64.3853   84.7021   15.0938 C.ar    1  UNL1        0.0031
      4 C          63.8059   85.5391   13.9923 C.ar    1  UNL1        0.0003
      5 C          63.9818   87.0287   14.0103 C.ar    1  UNL1        0.0032
      6 C          63.4024   87.8658   12.9088 C.ar    1  UNL1        0.0390
      7 C          62.6470   87.2133   11.7890 C.ar    1  UNL1        0.0032
      8 C          62.4711   85.7238   11.7709 C.ar    1  UNL1        0.0002
      9 C          63.0505   84.8867   12.8726 C.ar    1  UNL1        0.0030
     10 C          62.8746   83.3971   12.8545 C.ar    1  UNL1        0.0369
     11 C          61.9657   80.4753   13.5217 C.3     1  UNL1        0.2525
     12 O          63.2781   81.0705   13.9380 O.3     1  UNL1       -0.4714
     13 C          63.5783   89.3553   12.9268 C.2     1  UNL1        0.1956
     14 O          62.6164   90.2332   12.1826 O.2     1  UNL1       -0.2866
     15 C          64.7162   89.9669   13.6892 C.2     1  UNL1        0.0421
     16 C          65.2005   91.3426   13.3384 C.2     1  UNL1        0.0048
     17 C          66.3384   91.9542   14.1007 C.ar    1  UNL1        0.0193
     18 C          66.1162   92.4760   15.4894 C.ar    1  UNL1        0.0031
     19 C          67.2541   93.0876   16.2517 C.ar    1  UNL1        0.0207
     20 C          68.6141   93.1775   15.6254 C.ar    1  UNL1        0.0989
     21 N          68.8362   92.6557   14.2367 N.ar    1  UNL1       -0.2423
     22 C          67.6984   92.0441   13.4743 C.ar    1  UNL1        0.0988
@<TRIPOS>BOND
     1    11    12    1
     2    12     1    1
     3     1     2   ar
     4     2     3   ar
     5     3     4   ar
     6     4     5   ar
     7     5     6   ar
     8     6    13    1
     9    13    14    2
    10    13    15    1
    11    15    16    2
    12    16    17    1
    13    17    18   ar
    14    18    19   ar
    15    19    20   ar
    16    20    21   ar
    17    21    22   ar
    18     6     7   ar
    19     7     8   ar
    20     8     9   ar
    21     9    10   ar
    22    10     1   ar
    23     9     4   ar
    24    22    17   ar
@<TRIPOS>MOLECULE
*****
 22 24 0 0 0
SMALL
GASTEIGER

@<TRIPOS>ATOM
      1 C          63.3915   82.1836   13.0020 C.ar    1  UNL1        0.1387
      2 C          62.6930   82.8404   11.8484 C.ar    1  UNL1        0.0369
      3 C          62.6325   84.3366   11.7617 C.ar    1  UNL1        0.0031
      4 C          63.2703   85.1761   12.8286 C.ar    1  UNL1        0.0003
      5 C          63.2097   86.6724   12.7419 C.ar    1  UNL1        0.0032
      6 C          63.8476   87.5119   13.8088 C.ar    1  UNL1        0.0390
      7 C          64.5461   86.8551   14.9625 C.ar    1  UNL1        0.0032
      8 C          64.6067   85.3589   15.0492 C.ar    1  UNL1        0.0002
      9 C          63.9688   84.5194   13.9822 C.ar    1  UNL1        0.0030
     10 C          64.0293   83.0231   14.0689 C.ar    1  UNL1        0.0369
     11 C          62.1856   79.8901   13.1901 C.3     1  UNL1        0.2525
     12 O          63.4521   80.6873   13.0886 O.3     1  UNL1       -0.4714
     13 C          63.7870   89.0082   13.7222 C.2     1  UNL1        0.1956
     14 O          62.7039   89.6699   12.9229 O.2     1  UNL1       -0.2866
     15 C          64.8097   89.8427   14.4348 C.2     1  UNL1        0.0421
     16 C          65.4907   90.9697   13.7164 C.2     1  UNL1        0.0048
     17 C          66.5133   91.8043   14.4289 C.ar    1  UNL1        0.0193
     18 C          67.9275   91.8448   13.9306 C.ar    1  UNL1        0.0031
     19 C          68.9502   92.6794   14.6431 C.ar    1  UNL1        0.0207
     20 C          68.5586   93.4734   15.8540 C.ar    1  UNL1        0.0989
     21 N          67.1444   93.4328   16.3523 N.ar    1  UNL1       -0.2423
     22 C          66.1217   92.5983   15.6398 C.ar    1  UNL1        0.0988
@<TRIPOS>BOND
     1    11    12    1
     2    12     1    1
     3     1     2   ar
     4     2     3   ar
     5     3     4   ar
     6     4     5   ar
     7     5     6   ar
     8     6    13    1
     9    13    14    2
    10    13    15    1
    11    15    16    2
    12    16    17    1
    13    17    18   ar
    14    18    19   ar
    15    19    20   ar
    16    20    21   ar
    17    21    22   ar
    18     6     7   ar
    19     7     8   ar
    20     8     9   ar
    21     9    10   ar
    22    10     1   ar
    23     9     4   ar
    24    22    17   ar
@<TRIPOS>MOLECULE
*****
 22 24 0 0 0
SMALL
GASTEIGER

@<TRIPOS>ATOM
      1 C          59.3465   88.7570    7.3507 C.ar    1  UNL1        0.1387
      2 C          59.2706   87.2636    7.4689 C.ar    1  UNL1        0.0369
      3 C          60.0368   86.5566    8.5474 C.ar    1  UNL1        0.0031
      4 C          60.8788   87.3431    9.5078 C.ar    1  UNL1        0.0003
      5 C          61.6450   86.6362   10.5864 C.ar    1  UNL1        0.0032
      6 C          62.4870   87.4226   11.5467 C.ar    1  UNL1        0.0390
      7 C          62.5630   88.9161   11.4286 C.ar    1  UNL1        0.0032
      8 C          61.7968   89.6230   10.3501 C.ar    1  UNL1        0.0002
      9 C          60.9547   88.8365    9.3897 C.ar    1  UNL1        0.0030
     10 C          60.1886   89.5434    8.3111 C.ar    1  UNL1        0.0369
     11 C          59.2036   90.6161    5.5416 C.3     1  UNL1        0.2525
     12 O          58.5803   89.4639    6.2722 O.3     1  UNL1       -0.4714
     13 C          63.2532   86.7157   12.6253 C.2     1  UNL1        0.1956
     14 O          63.8962   87.5035   13.7279 O.2     1  UNL1       -0.2866
     15 C          63.3764   85.2209   12.6011 C.2     1  UNL1        0.0421
     16 C          62.3062   84.3701   13.2183 C.2     1  UNL1        0.0048
     17 C          62.4293   82.8754   13.1942 C.ar    1  UNL1        0.0193
     18 C          62.7434   82.1694   11.9085 C.ar    1  UNL1        0.0031
     19 C          62.8665   80.6747   11.8843 C.ar    1  UNL1        0.0207
     20 C          62.6756   79.8859   13.1459 C.ar    1  UNL1        0.0989
     21 N          62.3615   80.5919   14.4315 N.ar    1  UNL1       -0.2423
     22 C          62.2384   82.0867   14.4557 C.ar    1  UNL1        0.0988
@<TRIPOS>BOND
     1    11    12    1
     2    12     1    1
     3     1     2   ar
     4     2     3   ar
     5     3     4   ar
     6     4     5   ar
     7     5     6   ar
     8     6    13    1
     9    13    14    2
    10    13    15    1
    11    15    16    2
    12    16    17    1
    13    17    18   ar
    14    18    19   ar
    15    19    20   ar
    16    20    21   ar
    17    21    22   ar
    18     6     7   ar
    19     7     8   ar
    20     8     9   ar
    21     9    10   ar
    22    10     1   ar
    23     9     4   ar
    24    22    17   ar
