@<TRIPOS>MOLECULE
*****
 28 30 0 0 0
SMALL
GASTEIGER

@<TRIPOS>ATOM
      1 C          64.7145   91.5894   11.9658 C.ar    1  UNL1        0.1534
      2 C          63.7639   91.4429   10.8148 C.ar    1  UNL1        0.0351
      3 C          62.8030   90.2917   10.7776 C.ar    1  UNL1        0.0722
      4 CL         61.8523   90.1451    9.6265 Cl      1  UNL1       -0.0809
      5 C          62.7927   89.2870   11.8914 C.ar    1  UNL1        0.0577
      6 C          63.7433   89.4335   13.0424 C.ar    1  UNL1        0.0462
      7 C          64.7042   90.5847   13.0796 C.ar    1  UNL1        0.1602
      8 F          65.6548   90.7313   14.2307 F       1  UNL1       -0.2027
      9 O          66.1591   92.3813   10.6295 O.2     1  UNL1       -0.1498
     10 S          65.6754   92.7406   12.0031 S.O2    1  UNL1        0.0772
     11 O          65.1918   93.0999   13.3767 O.2     1  UNL1       -0.1498
     12 N          66.6363   93.8918   12.0403 N.pl3   1  UNL1       -0.1936
     13 H          67.2307   94.0119   12.8159 H       1  UNL1        0.1758
     14 C          66.6916   94.8599   10.8958 C.ar    1  UNL1        0.1786
     15 N          67.7480   94.9080    9.8320 N.ar    1  UNL1       -0.2214
     16 C          67.4095   96.0277    8.8930 C.ar    1  UNL1        0.1079
     17 C          66.1439   96.6716    9.3765 C.ar    1  UNL1        0.0588
     18 S          65.7002   95.9498   10.6144 S.2     1  UNL1       -0.0497
     19 N          61.8317   88.1358   11.8541 N.pl3   1  UNL1       -0.3319
     20 H          60.9923   88.1785   12.3667 H       1  UNL1        0.1468
     21 C          62.1498   86.9195   11.0359 C.3     1  UNL1        0.0871
     22 C          61.9780   85.5517   11.6273 C.3     1  UNL1        0.0226
     23 C          63.0273   84.5026   11.4081 C.3     1  UNL1        0.0188
     24 C          63.3985   83.8886   10.0908 C.3     1  UNL1        0.0185
     25 C          64.4903   82.8898   10.3362 C.3     1  UNL1        0.0686
     26 N          64.7940   82.8865   11.8051 N.3     1  UNL1       -0.2975
     27 C          63.8898   83.8832   12.4676 C.3     1  UNL1        0.0686
     28 H          65.7681   83.1477   11.9579 H       1  UNL1        0.1232
@<TRIPOS>BOND
     1     9    10    2
     2    10    11    2
     3    10    12    1
     4    12    14    1
     5    14    15   ar
     6    15    16   ar
     7    16    17   ar
     8    17    18   ar
     9    10     1    1
    10     1     2   ar
    11     2     3   ar
    12     3     4    1
    13     3     5   ar
    14     5    19    1
    15    19    21    1
    16    21    22    1
    17    22    23    1
    18    23    24    1
    19    24    25    1
    20    25    26    1
    21    26    27    1
    22     5     6   ar
    23     6     7   ar
    24     7     8    1
    25    18    14   ar
    26     7     1   ar
    27    27    23    1
    28    12    13    1
    29    19    20    1
    30    26    28    1
@<TRIPOS>MOLECULE
*****
 28 30 0 0 0
SMALL
GASTEIGER

@<TRIPOS>ATOM
      1 C          63.6906   86.3749   15.5474 C.ar    1  UNL1        0.1534
      2 C          64.0254   87.2640   14.3866 C.ar    1  UNL1        0.0351
      3 C          63.9211   88.7536   14.5283 C.ar    1  UNL1        0.0722
      4 CL         64.2559   89.6427   13.3675 Cl      1  UNL1       -0.0809
      5 C          63.4819   89.3542   15.8308 C.ar    1  UNL1        0.0577
      6 C          63.1471   88.4651   16.9916 C.ar    1  UNL1        0.0462
      7 C          63.2514   86.9755   16.8499 C.ar    1  UNL1        0.1602
      8 F          62.9166   86.0864   18.0107 F       1  UNL1       -0.2027
      9 O          65.2833   85.0033   15.2614 O.2     1  UNL1       -0.1498
     10 S          63.7950   84.8852   15.4058 S.O2    1  UNL1        0.0772
     11 O          62.3066   84.7672   15.5501 O.2     1  UNL1       -0.1498
     12 N          63.8993   83.3956   15.2641 N.pl3   1  UNL1       -0.1936
     13 H          64.1350   82.8423   16.0436 H       1  UNL1        0.1758
     14 C          63.6447   82.7489   13.9348 C.ar    1  UNL1        0.1786
     15 N          64.0647   83.2854   12.5984 N.ar    1  UNL1       -0.2214
     16 C          63.6050   82.3203   11.5462 C.ar    1  UNL1        0.1079
     17 C          62.9008   81.1873   12.2322 C.ar    1  UNL1        0.0588
     18 S          62.9253   81.4523   13.7085 S.2     1  UNL1       -0.0497
     19 N          63.3776   90.8439   15.9725 N.pl3   1  UNL1       -0.3319
     20 H          62.4981   91.2830   15.9189 H       1  UNL1        0.1468
     21 C          64.6132   91.6644   16.1958 C.3     1  UNL1        0.0871
     22 C          65.2890   92.3336   15.0358 C.3     1  UNL1        0.0226
     23 C          66.7840   92.4510   15.0047 C.3     1  UNL1        0.0188
     24 C          67.6390   93.1042   16.0498 C.3     1  UNL1        0.0185
     25 C          69.0700   92.9928   15.6140 C.3     1  UNL1        0.0686
     26 N          69.0994   92.2707   14.2996 N.3     1  UNL1       -0.2975
     27 C          67.6866   91.9358   13.9230 C.3     1  UNL1        0.0686
     28 H          69.6465   91.4143   14.3873 H       1  UNL1        0.1232
@<TRIPOS>BOND
     1     9    10    2
     2    10    11    2
     3    10    12    1
     4    12    14    1
     5    14    15   ar
     6    15    16   ar
     7    16    17   ar
     8    17    18   ar
     9    10     1    1
    10     1     2   ar
    11     2     3   ar
    12     3     4    1
    13     3     5   ar
    14     5    19    1
    15    19    21    1
    16    21    22    1
    17    22    23    1
    18    23    24    1
    19    24    25    1
    20    25    26    1
    21    26    27    1
    22     5     6   ar
    23     6     7   ar
    24     7     8    1
    25    18    14   ar
    26     7     1   ar
    27    27    23    1
    28    12    13    1
    29    19    20    1
    30    26    28    1
@<TRIPOS>MOLECULE
*****
 28 30 0 0 0
SMALL
GASTEIGER

@<TRIPOS>ATOM
      1 C          64.8057   91.7355   11.8989 C.ar    1  UNL1        0.1534
      2 C          63.8005   91.6260   10.7910 C.ar    1  UNL1        0.0351
      3 C          62.7788   90.5279   10.8111 C.ar    1  UNL1        0.0722
      4 CL         61.7736   90.4183    9.7032 Cl      1  UNL1       -0.0809
      5 C          62.7624   89.5394   11.9392 C.ar    1  UNL1        0.0577
      6 C          63.7676   89.6490   13.0471 C.ar    1  UNL1        0.0462
      7 C          64.7892   90.7470   13.0270 C.ar    1  UNL1        0.1602
      8 F          65.7945   90.8566   14.1349 F       1  UNL1       -0.2027
      9 O          66.2756   92.3916   10.5173 O.2     1  UNL1       -0.1498
     10 S          65.8274   92.8336   11.8788 S.O2    1  UNL1        0.0772
     11 O          65.3792   93.2757   13.2402 O.2     1  UNL1       -0.1498
     12 N          66.8491   93.9316   11.8586 N.pl3   1  UNL1       -0.1936
     13 H          67.5328   93.9809   12.5653 H       1  UNL1        0.1758
     14 C          66.8292   94.9546   10.7617 C.ar    1  UNL1        0.1786
     15 N          67.7831   95.0272    9.6063 N.ar    1  UNL1       -0.2214
     16 C          67.3953   96.2021    8.7582 C.ar    1  UNL1        0.1079
     17 C          66.2017   96.8556    9.3893 C.ar    1  UNL1        0.0588
     18 S          65.8518   96.0846   10.6276 S.2     1  UNL1       -0.0497
     19 N          61.7407   88.4413   11.9594 N.pl3   1  UNL1       -0.3319
     20 H          60.8775   88.5803   12.4121 H       1  UNL1        0.1468
     21 C          62.0340   87.1316   11.2897 C.3     1  UNL1        0.0871
     22 C          62.2319   87.0766    9.8038 C.3     1  UNL1        0.0226
     23 C          61.0744   86.7587    8.9043 C.3     1  UNL1        0.0188
     24 C          59.7503   87.4632    8.8890 C.3     1  UNL1        0.0185
     25 C          58.8953   86.8204    7.8374 C.3     1  UNL1        0.0686
     26 N          59.6911   85.7185    7.2028 N.3     1  UNL1       -0.2975
     27 C          61.0379   85.6804    7.8621 C.3     1  UNL1        0.0686
     28 H          59.7993   85.9002    6.2049 H       1  UNL1        0.1232
@<TRIPOS>BOND
     1     9    10    2
     2    10    11    2
     3    10    12    1
     4    12    14    1
     5    14    15   ar
     6    15    16   ar
     7    16    17   ar
     8    17    18   ar
     9    10     1    1
    10     1     2   ar
    11     2     3   ar
    12     3     4    1
    13     3     5   ar
    14     5    19    1
    15    19    21    1
    16    21    22    1
    17    22    23    1
    18    23    24    1
    19    24    25    1
    20    25    26    1
    21    26    27    1
    22     5     6   ar
    23     6     7   ar
    24     7     8    1
    25    18    14   ar
    26     7     1   ar
    27    27    23    1
    28    12    13    1
    29    19    20    1
    30    26    28    1
@<TRIPOS>MOLECULE
*****
 28 30 0 0 0
SMALL
GASTEIGER

@<TRIPOS>ATOM
      1 C          63.6467   90.7918   11.8133 C.ar    1  UNL1        0.1534
      2 C          62.6490   90.8405   10.6943 C.ar    1  UNL1        0.0351
      3 C          61.7377   89.6743   10.4507 C.ar    1  UNL1        0.0722
      4 CL         60.7399   89.7231    9.3317 Cl      1  UNL1       -0.0809
      5 C          61.8241   88.4593   11.3261 C.ar    1  UNL1        0.0577
      6 C          62.8218   88.4105   12.4451 C.ar    1  UNL1        0.0462
      7 C          63.7331   89.5768   12.6887 C.ar    1  UNL1        0.1602
      8 F          64.7309   89.5280   13.8077 F       1  UNL1       -0.2027
      9 O          64.9803   91.9286   10.6178 O.2     1  UNL1       -0.1498
     10 S          64.5581   91.9580   12.0569 S.O2    1  UNL1        0.0772
     11 O          64.1360   91.9874   13.4959 O.2     1  UNL1       -0.1498
     12 N          65.4695   93.1242   12.3004 N.pl3   1  UNL1       -0.1936
     13 H          65.3971   93.9308   11.7406 H       1  UNL1        0.1758
     14 C          66.4912   93.0615   13.3969 C.ar    1  UNL1        0.1786
     15 N          66.6054   94.0126   14.5511 N.ar    1  UNL1       -0.2214
     16 C          67.7628   93.5755   15.3993 C.ar    1  UNL1        0.1079
     17 C          68.3640   92.3542   14.7692 C.ar    1  UNL1        0.0588
     18 S          67.5780   92.0364   13.5316 S.2     1  UNL1       -0.0497
     19 N          60.9127   87.2931   11.0825 N.pl3   1  UNL1       -0.3319
     20 H          59.9364   87.4163   11.1141 H       1  UNL1        0.1468
     21 C          61.4887   85.9392   10.7909 C.3     1  UNL1        0.0871
     22 C          62.1164   85.1379   11.8928 C.3     1  UNL1        0.0226
     23 C          63.1880   84.1374   11.5758 C.3     1  UNL1        0.0188
     24 C          63.5049   83.5854   10.2175 C.3     1  UNL1        0.0185
     25 C          64.6436   82.6200   10.3637 C.3     1  UNL1        0.0686
     26 N          65.0305   82.5754   11.8123 N.3     1  UNL1       -0.2975
     27 C          64.1309   83.5131   12.5614 C.3     1  UNL1        0.0686
     28 H          66.0019   82.8672   11.9203 H       1  UNL1        0.1232
@<TRIPOS>BOND
     1     9    10    2
     2    10    11    2
     3    10    12    1
     4    12    14    1
     5    14    15   ar
     6    15    16   ar
     7    16    17   ar
     8    17    18   ar
     9    10     1    1
    10     1     2   ar
    11     2     3   ar
    12     3     4    1
    13     3     5   ar
    14     5    19    1
    15    19    21    1
    16    21    22    1
    17    22    23    1
    18    23    24    1
    19    24    25    1
    20    25    26    1
    21    26    27    1
    22     5     6   ar
    23     6     7   ar
    24     7     8    1
    25    18    14   ar
    26     7     1   ar
    27    27    23    1
    28    12    13    1
    29    19    20    1
    30    26    28    1
@<TRIPOS>MOLECULE
*****
 28 30 0 0 0
SMALL
GASTEIGER

@<TRIPOS>ATOM
      1 C          63.9585   86.8590   14.0845 C.ar    1  UNL1        0.1534
      2 C          64.3561   88.0238   14.9420 C.ar    1  UNL1        0.0351
      3 C          64.1456   89.4246   14.4487 C.ar    1  UNL1        0.0722
      4 CL         64.5432   90.5894   15.3061 Cl      1  UNL1       -0.0809
      5 C          63.5375   89.6606   13.0979 C.ar    1  UNL1        0.0577
      6 C          63.1399   88.4959   12.2405 C.ar    1  UNL1        0.0462
      7 C          63.3504   87.0951   12.7338 C.ar    1  UNL1        0.1602
      8 F          62.9529   85.9302   11.8764 F       1  UNL1       -0.2027
      9 O          62.6840   85.2556   14.6361 O.2     1  UNL1       -0.1498
     10 S          64.1691   85.4581   14.5778 S.O2    1  UNL1        0.0772
     11 O          65.6541   85.6607   14.5196 O.2     1  UNL1       -0.1498
     12 N          64.3795   84.0573   15.0711 N.pl3   1  UNL1       -0.1936
     13 H          64.8747   83.8990   15.9072 H       1  UNL1        0.1758
     14 C          63.8356   82.8976   14.2905 C.ar    1  UNL1        0.1786
     15 N          62.9071   81.8414   14.8124 N.ar    1  UNL1       -0.2214
     16 C          62.6223   80.8816   13.6954 C.ar    1  UNL1        0.1079
     17 C          63.3749   81.3446   12.4832 C.ar    1  UNL1        0.0588
     18 S          64.1247   82.5906   12.8510 S.2     1  UNL1       -0.0497
     19 N          63.3270   91.0615   12.6046 N.pl3   1  UNL1       -0.3319
     20 H          62.5650   91.5904   12.9348 H       1  UNL1        0.1468
     21 C          64.2774   91.6566   11.6084 C.3     1  UNL1        0.0871
     22 C          65.6149   92.1649   12.0587 C.3     1  UNL1        0.0226
     23 C          66.4732   92.9549   11.1158 C.3     1  UNL1        0.0188
     24 C          67.4804   92.3912   10.1578 C.3     1  UNL1        0.0185
     25 C          68.1048   93.5352    9.4153 C.3     1  UNL1        0.0686
     26 N          67.4835   94.8061    9.9144 N.3     1  UNL1       -0.2975
     27 C          66.4751   94.4474   10.9654 C.3     1  UNL1        0.0686
     28 H          67.0233   95.2920    9.1446 H       1  UNL1        0.1232
@<TRIPOS>BOND
     1     9    10    2
     2    10    11    2
     3    10    12    1
     4    12    14    1
     5    14    15   ar
     6    15    16   ar
     7    16    17   ar
     8    17    18   ar
     9    10     1    1
    10     1     2   ar
    11     2     3   ar
    12     3     4    1
    13     3     5   ar
    14     5    19    1
    15    19    21    1
    16    21    22    1
    17    22    23    1
    18    23    24    1
    19    24    25    1
    20    25    26    1
    21    26    27    1
    22     5     6   ar
    23     6     7   ar
    24     7     8    1
    25    18    14   ar
    26     7     1   ar
    27    27    23    1
    28    12    13    1
    29    19    20    1
    30    26    28    1
@<TRIPOS>MOLECULE
*****
 28 30 0 0 0
SMALL
GASTEIGER

@<TRIPOS>ATOM
      1 C          62.6710   89.8445   12.0265 C.ar    1  UNL1        0.1534
      2 C          63.1439   89.8662   13.4498 C.ar    1  UNL1        0.0351
      3 C          64.2027   90.8405   13.8735 C.ar    1  UNL1        0.0722
      4 CL         64.6757   90.8622   15.2968 Cl      1  UNL1       -0.0809
      5 C          64.7885   91.7933   12.8739 C.ar    1  UNL1        0.0577
      6 C          64.3155   91.7716   11.4506 C.ar    1  UNL1        0.0462
      7 C          63.2567   90.7973   11.0269 C.ar    1  UNL1        0.1602
      8 F          62.7837   90.7756    9.6035 F       1  UNL1       -0.2027
      9 O          62.6517   88.0438   10.9053 O.2     1  UNL1       -0.1498
     10 S          61.6121   88.8701   11.6027 S.O2    1  UNL1        0.0772
     11 O          60.5725   89.6964   12.3001 O.2     1  UNL1       -0.1498
     12 N          60.5534   87.8958   11.1789 N.pl3   1  UNL1       -0.1936
     13 H          60.1483   87.2902   11.8411 H       1  UNL1        0.1758
     14 C          60.1119   87.8440    9.7463 C.ar    1  UNL1        0.1786
     15 N          59.7296   86.6090    8.9856 N.ar    1  UNL1       -0.2214
     16 C          59.3565   87.0199    7.5920 C.ar    1  UNL1        0.1079
     17 C          59.5083   88.5089    7.4914 C.ar    1  UNL1        0.0588
     18 S          59.9752   89.0182    8.8229 S.2     1  UNL1       -0.0497
     19 N          65.8473   92.7677   13.2977 N.pl3   1  UNL1       -0.3319
     20 H          66.0107   92.9318   14.2545 H       1  UNL1        0.1468
     21 C          66.6571   93.4920   12.2635 C.3     1  UNL1        0.0871
     22 C          66.2036   94.8291   11.7570 C.3     1  UNL1        0.0226
     23 C          66.7270   95.3541   10.4531 C.3     1  UNL1        0.0188
     24 C          67.0081   94.5410    9.2243 C.3     1  UNL1        0.0185
     25 C          67.5162   95.4688    8.1608 C.3     1  UNL1        0.0686
     26 N          67.5491   96.8553    8.7322 N.3     1  UNL1       -0.2975
     27 C          67.0614   96.7845   10.1489 C.3     1  UNL1        0.0686
     28 H          66.9427   97.4686    8.1876 H       1  UNL1        0.1232
@<TRIPOS>BOND
     1     9    10    2
     2    10    11    2
     3    10    12    1
     4    12    14    1
     5    14    15   ar
     6    15    16   ar
     7    16    17   ar
     8    17    18   ar
     9    10     1    1
    10     1     2   ar
    11     2     3   ar
    12     3     4    1
    13     3     5   ar
    14     5    19    1
    15    19    21    1
    16    21    22    1
    17    22    23    1
    18    23    24    1
    19    24    25    1
    20    25    26    1
    21    26    27    1
    22     5     6   ar
    23     6     7   ar
    24     7     8    1
    25    18    14   ar
    26     7     1   ar
    27    27    23    1
    28    12    13    1
    29    19    20    1
    30    26    28    1
@<TRIPOS>MOLECULE
*****
 28 30 0 0 0
SMALL
GASTEIGER

@<TRIPOS>ATOM
      1 C          64.8627   91.7249   11.9938 C.ar    1  UNL1        0.1534
      2 C          64.8826   90.7416   13.1263 C.ar    1  UNL1        0.0351
      3 C          63.9398   89.5749   13.1231 C.ar    1  UNL1        0.0722
      4 CL         63.9597   88.5915   14.2557 Cl      1  UNL1       -0.0809
      5 C          62.9772   89.3915   11.9875 C.ar    1  UNL1        0.0577
      6 C          62.9574   90.3749   10.8550 C.ar    1  UNL1        0.0462
      7 C          63.9001   91.5415   10.8581 C.ar    1  UNL1        0.1602
      8 F          63.8803   92.5249    9.7256 F       1  UNL1       -0.2027
      9 O          65.3321   93.2704   13.3689 O.2     1  UNL1       -0.1498
     10 S          65.8055   92.8916   11.9969 S.O2    1  UNL1        0.0772
     11 O          66.2789   92.5128   10.6250 O.2     1  UNL1       -0.1498
     12 N          66.7482   94.0583   12.0001 N.pl3   1  UNL1       -0.1936
     13 H          67.3865   94.1734   12.7408 H       1  UNL1        0.1758
     14 C          66.7185   95.0497   10.8747 C.ar    1  UNL1        0.1786
     15 N          67.7430   95.1798    9.7870 N.ar    1  UNL1       -0.2214
     16 C          67.3167   96.2955    8.8796 C.ar    1  UNL1        0.1079
     17 C          66.0285   96.8551    9.4066 C.ar    1  UNL1        0.0588
     18 S          65.6588   96.0851   10.6398 S.2     1  UNL1       -0.0497
     19 N          62.0344   88.2248   11.9843 N.pl3   1  UNL1       -0.3319
     20 H          61.3262   88.1624   12.6653 H       1  UNL1        0.1468
     21 C          62.1708   87.1531   10.9437 C.3     1  UNL1        0.0871
     22 C          60.9459   86.5591   10.3138 C.3     1  UNL1        0.0226
     23 C          60.2357   87.2940    9.2159 C.3     1  UNL1        0.0188
     24 C          60.4274   88.7368    8.8531 C.3     1  UNL1        0.0185
     25 C          59.5193   89.0497    7.7009 C.3     1  UNL1        0.0686
     26 N          58.7663   87.8002    7.3516 N.3     1  UNL1       -0.2975
     27 C          59.2091   86.7152    8.2879 C.3     1  UNL1        0.0686
     28 H          58.9698   87.5312    6.3890 H       1  UNL1        0.1232
@<TRIPOS>BOND
     1     9    10    2
     2    10    11    2
     3    10    12    1
     4    12    14    1
     5    14    15   ar
     6    15    16   ar
     7    16    17   ar
     8    17    18   ar
     9    10     1    1
    10     1     2   ar
    11     2     3   ar
    12     3     4    1
    13     3     5   ar
    14     5    19    1
    15    19    21    1
    16    21    22    1
    17    22    23    1
    18    23    24    1
    19    24    25    1
    20    25    26    1
    21    26    27    1
    22     5     6   ar
    23     6     7   ar
    24     7     8    1
    25    18    14   ar
    26     7     1   ar
    27    27    23    1
    28    12    13    1
    29    19    20    1
    30    26    28    1
@<TRIPOS>MOLECULE
*****
 28 30 0 0 0
SMALL
GASTEIGER

@<TRIPOS>ATOM
      1 C          63.2030   85.8723   12.9489 C.ar    1  UNL1        0.1534
      2 C          62.3615   85.7673   11.7117 C.ar    1  UNL1        0.0351
      3 C          62.0470   86.9968   10.9120 C.ar    1  UNL1        0.0722
      4 CL         61.2055   86.8918    9.6747 Cl      1  UNL1       -0.0809
      5 C          62.5740   88.3312   11.3496 C.ar    1  UNL1        0.0577
      6 C          63.4155   88.4362   12.5869 C.ar    1  UNL1        0.0462
      7 C          63.7300   87.2067   13.3865 C.ar    1  UNL1        0.1602
      8 F          64.5715   87.3117   14.6239 F       1  UNL1       -0.2027
      9 O          62.7088   85.1797   14.8921 O.2     1  UNL1       -0.1498
     10 S          63.5175   84.6428   13.7486 S.O2    1  UNL1        0.0772
     11 O          64.3262   84.1058   12.6051 O.2     1  UNL1       -0.1498
     12 N          63.8320   83.4134   14.5483 N.pl3   1  UNL1       -0.1936
     13 H          64.4919   83.4560   15.2777 H       1  UNL1        0.1758
     14 C          63.1411   82.1189   14.2367 C.ar    1  UNL1        0.1786
     15 N          63.8117   80.8233   13.8878 N.ar    1  UNL1       -0.2214
     16 C          62.7433   79.7964   13.6548 C.ar    1  UNL1        0.1079
     17 C          61.4125   80.4574   13.8597 C.ar    1  UNL1        0.0588
     18 S          61.6583   81.8928   14.2194 S.2     1  UNL1       -0.0497
     19 N          62.2595   89.5607   10.5499 N.pl3   1  UNL1       -0.3319
     20 H          61.7844   89.4813    9.6913 H       1  UNL1        0.1468
     21 C          62.6689   90.9112   11.0584 C.3     1  UNL1        0.0871
     22 C          63.7613   91.6730   10.3682 C.3     1  UNL1        0.0226
     23 C          64.9349   92.1785   11.1537 C.3     1  UNL1        0.0188
     24 C          65.0934   92.1113   12.6438 C.3     1  UNL1        0.0185
     25 C          66.4125   92.7312   12.9981 C.3     1  UNL1        0.0686
     26 N          67.0694   93.1815   11.7270 N.3     1  UNL1       -0.2975
     27 C          66.1562   92.8399   10.5871 C.3     1  UNL1        0.0686
     28 H          67.9625   92.7028   11.6104 H       1  UNL1        0.1232
@<TRIPOS>BOND
     1     9    10    2
     2    10    11    2
     3    10    12    1
     4    12    14    1
     5    14    15   ar
     6    15    16   ar
     7    16    17   ar
     8    17    18   ar
     9    10     1    1
    10     1     2   ar
    11     2     3   ar
    12     3     4    1
    13     3     5   ar
    14     5    19    1
    15    19    21    1
    16    21    22    1
    17    22    23    1
    18    23    24    1
    19    24    25    1
    20    25    26    1
    21    26    27    1
    22     5     6   ar
    23     6     7   ar
    24     7     8    1
    25    18    14   ar
    26     7     1   ar
    27    27    23    1
    28    12    13    1
    29    19    20    1
    30    26    28    1
@<TRIPOS>MOLECULE
*****
 28 30 0 0 0
SMALL
GASTEIGER

@<TRIPOS>ATOM
      1 C          65.4511   92.0420   12.6221 C.ar    1  UNL1        0.1534
      2 C          65.9924   92.5054   13.9420 C.ar    1  UNL1        0.0351
      3 C          65.3599   92.0359   15.2185 C.ar    1  UNL1        0.0722
      4 CL         65.9011   92.4993   16.5385 Cl      1  UNL1       -0.0809
      5 C          64.1861   91.1030   15.1751 C.ar    1  UNL1        0.0577
      6 C          63.6448   90.6396   13.8552 C.ar    1  UNL1        0.0462
      7 C          64.2773   91.1091   12.5787 C.ar    1  UNL1        0.1602
      8 F          63.7361   90.6457   11.2587 F       1  UNL1       -0.2027
      9 O          64.7237   92.7080   10.7440 O.2     1  UNL1       -0.1498
     10 S          66.0837   92.5115   11.3456 S.O2    1  UNL1        0.0772
     11 O          67.4436   92.3150   11.9471 O.2     1  UNL1       -0.1498
     12 N          66.7161   92.9810   10.0690 N.pl3   1  UNL1       -0.1936
     13 H          67.0216   92.3256    9.4009 H       1  UNL1        0.1758
     14 C          66.8831   94.4491    9.8104 C.ar    1  UNL1        0.1786
     15 N          66.6723   95.5496   10.8076 N.ar    1  UNL1       -0.2214
     16 C          66.9492   96.8551   10.1227 C.ar    1  UNL1        0.1079
     17 C          67.3312   96.5614    8.7021 C.ar    1  UNL1        0.0588
     18 S          67.2904   95.0743    8.5091 S.2     1  UNL1       -0.0497
     19 N          63.5536   90.6335   16.4516 N.pl3   1  UNL1       -0.3319
     20 H          63.7058   91.1299   17.2881 H       1  UNL1        0.1468
     21 C          62.6891   89.4077   16.4538 C.3     1  UNL1        0.0871
     22 C          63.1743   88.1488   17.1094 C.3     1  UNL1        0.0226
     23 C          63.4980   86.9452   16.2748 C.3     1  UNL1        0.0188
     24 C          64.3941   86.9214   15.0722 C.3     1  UNL1        0.0185
     25 C          64.4324   85.5156   14.5504 C.3     1  UNL1        0.0686
     26 N          63.5598   84.6706   15.4306 N.3     1  UNL1       -0.2975
     27 C          62.9824   85.5541   16.4963 C.3     1  UNL1        0.0686
     28 H          64.1145   83.9292   15.8586 H       1  UNL1        0.1232
@<TRIPOS>BOND
     1     9    10    2
     2    10    11    2
     3    10    12    1
     4    12    14    1
     5    14    15   ar
     6    15    16   ar
     7    16    17   ar
     8    17    18   ar
     9    10     1    1
    10     1     2   ar
    11     2     3   ar
    12     3     4    1
    13     3     5   ar
    14     5    19    1
    15    19    21    1
    16    21    22    1
    17    22    23    1
    18    23    24    1
    19    24    25    1
    20    25    26    1
    21    26    27    1
    22     5     6   ar
    23     6     7   ar
    24     7     8    1
    25    18    14   ar
    26     7     1   ar
    27    27    23    1
    28    12    13    1
    29    19    20    1
    30    26    28    1
