@<TRIPOS>MOLECULE
*****
 28 30 0 0 0
SMALL
GASTEIGER

@<TRIPOS>ATOM
      1 S          63.9754   89.7180   13.9125 S.O2    1  UNL1        0.0456
      2 O          62.6393   90.0034   13.2934 O.2     1  UNL1       -0.1572
      3 O          65.3116   89.4327   14.5315 O.2     1  UNL1       -0.1572
      4 N          63.7790   88.2524   13.6607 N.3     1  UNL1       -0.1559
      5 C          64.2912   87.2465   14.6485 C.3     1  UNL1        0.1168
      6 C          64.0948   85.7809   14.3967 C.3     1  UNL1        0.1099
      7 N          63.3862   85.3212   13.1572 N.pl3   1  UNL1       -0.3045
      8 C          62.8740   86.3271   12.1694 C.3     1  UNL1        0.1099
      9 C          63.0704   87.7927   12.4211 C.3     1  UNL1        0.1168
     10 C          63.1897   83.8555   12.9054 C.ar    1  UNL1        0.0481
     11 C          63.3733   83.3006   11.5240 C.ar    1  UNL1        0.0168
     12 C          63.1769   81.8349   11.2723 C.ar    1  UNL1        0.0309
     13 C          62.7969   80.9242   12.4020 C.ar    1  UNL1        0.1402
     14 F          62.6005   79.4586   12.1503 F       1  UNL1       -0.2042
     15 C          62.6134   81.4792   13.7835 C.ar    1  UNL1        0.0309
     16 C          62.8098   82.9448   14.0352 C.ar    1  UNL1        0.0168
     17 C          64.1718   91.1836   14.1642 C.3     1  UNL1        0.1897
     18 C          65.1504   91.9623   13.3360 C.3     1  UNL1        0.1148
     19 C          64.2092   91.5021   12.2627 C.3     1  UNL1        0.0546
     20 C          64.4554   91.8864   10.8338 C.3     1  UNL1        0.1440
     21 O          65.6430   92.7311   10.4784 O.3     1  UNL1       -0.3537
     22 C          66.5842   93.1914   11.5517 C.3     1  UNL1        0.1440
     23 C          66.3379   92.8070   12.9805 C.3     1  UNL1        0.0546
     24 O          67.8389   92.2473   16.2413 O.2     1  UNL1       -0.2627
     25 C          67.2376   92.0574   14.8803 C.2     1  UNL1        0.3268
     26 N          65.7518   92.1522   14.6970 N.am    1  UNL1       -0.1661
     27 O          64.8675   92.4367   15.8747 O.3     1  UNL1       -0.2915
     28 H          65.4116   92.5315   16.6722 H       1  UNL1        0.2417
@<TRIPOS>BOND
     1    24    25    2
     2    25    26   am
     3    26    27    1
     4    26    18    1
     5    18    17    1
     6    17     1    1
     7     1     2    2
     8     1     3    2
     9     1     4    1
    10     4     5    1
    11     5     6    1
    12     6     7    1
    13     7    10    1
    14    10    11   ar
    15    11    12   ar
    16    12    13   ar
    17    13    14    1
    18    13    15   ar
    19    15    16   ar
    20     7     8    1
    21     8     9    1
    22    18    19    1
    23    19    20    1
    24    20    21    1
    25    21    22    1
    26    22    23    1
    27    23    18    1
    28     9     4    1
    29    16    10   ar
    30    27    28    1
@<TRIPOS>MOLECULE
*****
 28 30 0 0 0
SMALL
GASTEIGER

@<TRIPOS>ATOM
      1 S          61.5501   89.6682   11.3785 S.O2    1  UNL1        0.0456
      2 O          62.3302   89.6629   10.0973 O.2     1  UNL1       -0.1572
      3 O          60.7701   89.6735   12.6597 O.2     1  UNL1       -0.1572
      4 N          62.7406   90.2257   12.1010 N.3     1  UNL1       -0.1559
      5 C          63.5979   91.2659   11.4429 C.3     1  UNL1        0.1168
      6 C          64.7884   91.8233   12.1654 C.3     1  UNL1        0.1099
      7 N          65.1215   91.3406   13.5460 N.pl3   1  UNL1       -0.3045
      8 C          64.2642   90.3005   14.2041 C.3     1  UNL1        0.1099
      9 C          63.0738   89.7431   13.4816 C.3     1  UNL1        0.1168
     10 C          66.3120   91.8981   14.2685 C.ar    1  UNL1        0.0481
     11 C          67.6636   91.8723   13.6185 C.ar    1  UNL1        0.0168
     12 C          68.8541   92.4298   14.3410 C.ar    1  UNL1        0.0309
     13 C          68.6930   93.0131   15.7135 C.ar    1  UNL1        0.1402
     14 F          69.8834   93.5706   16.4360 F       1  UNL1       -0.2042
     15 C          67.3413   93.0389   16.3635 C.ar    1  UNL1        0.0309
     16 C          66.1509   92.4815   15.6410 C.ar    1  UNL1        0.0168
     17 C          60.3597   89.1108   10.6560 C.3     1  UNL1        0.1897
     18 C          60.5355   87.9918    9.6726 C.3     1  UNL1        0.1148
     19 C          61.0663   87.3350   10.9122 C.3     1  UNL1        0.0546
     20 C          61.5674   85.9222   10.8565 C.3     1  UNL1        0.1440
     21 O          61.5376   85.1664    9.5612 O.3     1  UNL1       -0.3537
     22 C          61.0068   85.8233    8.3215 C.3     1  UNL1        0.1440
     23 C          60.5057   87.2360    8.3773 C.3     1  UNL1        0.0546
     24 O          58.9720   89.7340    6.4678 O.2     1  UNL1       -0.2627
     25 C          59.5639   88.6884    7.3659 C.2     1  UNL1        0.3268
     26 N          59.9436   89.0374    8.7745 N.am    1  UNL1       -0.1661
     27 O          59.7314   90.4318    9.2849 O.3     1  UNL1       -0.2915
     28 H          59.3436   90.9775    8.5830 H       1  UNL1        0.2417
@<TRIPOS>BOND
     1    24    25    2
     2    25    26   am
     3    26    27    1
     4    26    18    1
     5    18    17    1
     6    17     1    1
     7     1     2    2
     8     1     3    2
     9     1     4    1
    10     4     5    1
    11     5     6    1
    12     6     7    1
    13     7    10    1
    14    10    11   ar
    15    11    12   ar
    16    12    13   ar
    17    13    14    1
    18    13    15   ar
    19    15    16   ar
    20     7     8    1
    21     8     9    1
    22    18    19    1
    23    19    20    1
    24    20    21    1
    25    21    22    1
    26    22    23    1
    27    23    18    1
    28     9     4    1
    29    16    10   ar
    30    27    28    1
@<TRIPOS>MOLECULE
*****
 28 30 0 0 0
SMALL
GASTEIGER

@<TRIPOS>ATOM
      1 S          63.8662   89.7174   13.1546 S.O2    1  UNL1        0.0456
      2 O          62.8256   89.9034   12.0904 O.2     1  UNL1       -0.1572
      3 O          64.9068   89.5314   14.2188 O.2     1  UNL1       -0.1572
      4 N          63.6394   88.2351   13.1173 N.3     1  UNL1       -0.1559
      5 C          64.1848   87.3652   14.2108 C.3     1  UNL1        0.1168
      6 C          63.9579   85.8829   14.1735 C.3     1  UNL1        0.1099
      7 N          63.1856   85.2706   13.0427 N.pl3   1  UNL1       -0.3045
      8 C          62.6402   86.1405   11.9493 C.3     1  UNL1        0.1099
      9 C          62.8670   87.6228   11.9866 C.3     1  UNL1        0.1168
     10 C          62.9587   83.7883   13.0054 C.ar    1  UNL1        0.0481
     11 C          62.4779   83.0721   14.2325 C.ar    1  UNL1        0.0168
     12 C          62.2510   81.5897   14.1952 C.ar    1  UNL1        0.0309
     13 C          62.5050   80.8237   12.9309 C.ar    1  UNL1        0.1402
     14 F          62.2782   79.3415   12.8935 F       1  UNL1       -0.2042
     15 C          62.9859   81.5400   11.7037 C.ar    1  UNL1        0.0309
     16 C          63.2127   83.0222   11.7411 C.ar    1  UNL1        0.0168
     17 C          64.0931   91.1997   13.1918 C.3     1  UNL1        0.1897
     18 C          65.0681   91.7849   14.1700 C.3     1  UNL1        0.1148
     19 C          63.9562   91.4088   15.1039 C.3     1  UNL1        0.0546
     20 C          64.0880   91.6780   16.5737 C.3     1  UNL1        0.1440
     21 O          65.3316   92.3232   17.1094 O.3     1  UNL1       -0.3537
     22 C          66.4435   92.6993   16.1755 C.3     1  UNL1        0.1440
     23 C          66.3117   92.4300   14.7058 C.3     1  UNL1        0.0546
     24 O          68.1144   92.1301   11.6498 O.2     1  UNL1       -0.2627
     25 C          67.3412   91.9573   12.9235 C.2     1  UNL1        0.3268
     26 N          65.8414   91.9576   12.8963 N.am    1  UNL1       -0.1661
     27 O          65.1150   92.1307   11.5954 O.3     1  UNL1       -0.2915
     28 H          65.7585   92.2287   10.8763 H       1  UNL1        0.2417
@<TRIPOS>BOND
     1    24    25    2
     2    25    26   am
     3    26    27    1
     4    26    18    1
     5    18    17    1
     6    17     1    1
     7     1     2    2
     8     1     3    2
     9     1     4    1
    10     4     5    1
    11     5     6    1
    12     6     7    1
    13     7    10    1
    14    10    11   ar
    15    11    12   ar
    16    12    13   ar
    17    13    14    1
    18    13    15   ar
    19    15    16   ar
    20     7     8    1
    21     8     9    1
    22    18    19    1
    23    19    20    1
    24    20    21    1
    25    21    22    1
    26    22    23    1
    27    23    18    1
    28     9     4    1
    29    16    10   ar
    30    27    28    1
@<TRIPOS>MOLECULE
*****
 28 30 0 0 0
SMALL
GASTEIGER

@<TRIPOS>ATOM
      1 S          61.2258   88.3021   10.5496 S.O2    1  UNL1        0.0456
      2 O          61.9204   88.6966    9.2800 O.2     1  UNL1       -0.1572
      3 O          60.5312   87.9077   11.8191 O.2     1  UNL1       -0.1572
      4 N          62.2089   89.1142   11.3397 N.3     1  UNL1       -0.1559
      5 C          62.9402   88.4927   12.4924 C.3     1  UNL1        0.1168
      6 C          63.9233   89.3047   13.2824 C.3     1  UNL1        0.1099
      7 N          64.1750   90.7383   12.9197 N.pl3   1  UNL1       -0.3045
      8 C          63.4436   91.3598   11.7670 C.3     1  UNL1        0.1099
      9 C          62.4606   90.5477   10.9770 C.3     1  UNL1        0.1168
     10 C          65.1581   91.5503   13.7098 C.ar    1  UNL1        0.0481
     11 C          66.2004   92.3635   13.0011 C.ar    1  UNL1        0.0168
     12 C          67.1835   93.1755   13.7912 C.ar    1  UNL1        0.0309
     13 C          67.1242   93.1743   15.2900 C.ar    1  UNL1        0.1402
     14 F          68.1072   93.9863   16.0801 F       1  UNL1       -0.2042
     15 C          66.0818   92.3611   15.9987 C.ar    1  UNL1        0.0309
     16 C          65.0988   91.5491   15.2086 C.ar    1  UNL1        0.0168
     17 C          60.2428   87.4902    9.7595 C.3     1  UNL1        0.1897
     18 C          60.7220   86.6124    8.6415 C.3     1  UNL1        0.1148
     19 C          61.7229   86.2555    9.7002 C.3     1  UNL1        0.0546
     20 C          62.7976   85.2506    9.4081 C.3     1  UNL1        0.1440
     21 O          62.8713   84.6027    8.0573 O.3     1  UNL1       -0.3537
     22 C          61.8704   84.9596    6.9986 C.3     1  UNL1        0.1440
     23 C          60.7958   85.9644    7.2907 C.3     1  UNL1        0.0546
     24 O          58.5477   89.2936    6.6836 O.2     1  UNL1       -0.2627
     25 C          59.7150   88.6319    7.3540 C.2     1  UNL1        0.3268
     26 N          59.5547   87.2741    7.9711 N.am    1  UNL1       -0.1661
     27 O          58.2270   86.5781    7.9177 O.3     1  UNL1       -0.2915
     28 H          57.5864   87.1390    7.4530 H       1  UNL1        0.2417
@<TRIPOS>BOND
     1    24    25    2
     2    25    26   am
     3    26    27    1
     4    26    18    1
     5    18    17    1
     6    17     1    1
     7     1     2    2
     8     1     3    2
     9     1     4    1
    10     4     5    1
    11     5     6    1
    12     6     7    1
    13     7    10    1
    14    10    11   ar
    15    11    12   ar
    16    12    13   ar
    17    13    14    1
    18    13    15   ar
    19    15    16   ar
    20     7     8    1
    21     8     9    1
    22    18    19    1
    23    19    20    1
    24    20    21    1
    25    21    22    1
    26    22    23    1
    27    23    18    1
    28     9     4    1
    29    16    10   ar
    30    27    28    1
@<TRIPOS>MOLECULE
*****
 28 30 0 0 0
SMALL
GASTEIGER

@<TRIPOS>ATOM
      1 S          61.2862   89.8380   11.2327 S.O2    1  UNL1        0.0456
      2 O          62.0641   89.8125    9.9505 O.2     1  UNL1       -0.1572
      3 O          60.5082   89.8635   12.5149 O.2     1  UNL1       -0.1572
      4 N          62.4963   90.3494   11.9567 N.3     1  UNL1       -0.1559
      5 C          62.7405   89.9528   13.3825 C.3     1  UNL1        0.1168
      6 C          63.9506   90.4642   14.1064 C.3     1  UNL1        0.1099
      7 N          64.9164   91.3722   13.4045 N.pl3   1  UNL1       -0.3045
      8 C          64.6722   91.7688   11.9787 C.3     1  UNL1        0.1099
      9 C          63.4621   91.2574   11.2548 C.3     1  UNL1        0.1168
     10 C          66.1266   91.8837   14.1285 C.ar    1  UNL1        0.0481
     11 C          67.4634   91.8831   13.4483 C.ar    1  UNL1        0.0168
     12 C          68.6736   92.3945   14.1723 C.ar    1  UNL1        0.0309
     13 C          68.5467   92.9065   15.5765 C.ar    1  UNL1        0.1402
     14 F          69.7568   93.4179   16.3005 F       1  UNL1       -0.2042
     15 C          67.2098   92.9070   16.2567 C.ar    1  UNL1        0.0309
     16 C          65.9997   92.3956   15.5327 C.ar    1  UNL1        0.0168
     17 C          60.0761   89.3266   10.5087 C.3     1  UNL1        0.1897
     18 C          60.1853   88.1195    9.6249 C.3     1  UNL1        0.1148
     19 C          59.7713   89.1466    8.6131 C.3     1  UNL1        0.0546
     20 C          59.5971   88.7555    7.1755 C.3     1  UNL1        0.1440
     21 O          59.8369   87.3373    6.7497 O.3     1  UNL1       -0.3537
     22 C          60.2510   86.3102    7.7615 C.3     1  UNL1        0.1440
     23 C          60.4252   86.7014    9.1991 C.3     1  UNL1        0.0546
     24 O          62.1909   86.0883   12.3820 O.2     1  UNL1       -0.2627
     25 C          61.8147   86.6961   11.0633 C.2     1  UNL1        0.3268
     26 N          60.5615   87.5117   10.9436 N.am    1  UNL1       -0.1661
     27 O          59.6845   87.7194   12.1426 O.3     1  UNL1       -0.2915
     28 H          60.0690   87.2631   12.9074 H       1  UNL1        0.2417
@<TRIPOS>BOND
     1    24    25    2
     2    25    26   am
     3    26    27    1
     4    26    18    1
     5    18    17    1
     6    17     1    1
     7     1     2    2
     8     1     3    2
     9     1     4    1
    10     4     5    1
    11     5     6    1
    12     6     7    1
    13     7    10    1
    14    10    11   ar
    15    11    12   ar
    16    12    13   ar
    17    13    14    1
    18    13    15   ar
    19    15    16   ar
    20     7     8    1
    21     8     9    1
    22    18    19    1
    23    19    20    1
    24    20    21    1
    25    21    22    1
    26    22    23    1
    27    23    18    1
    28     9     4    1
    29    16    10   ar
    30    27    28    1
@<TRIPOS>MOLECULE
*****
 28 30 0 0 0
SMALL
GASTEIGER

@<TRIPOS>ATOM
      1 S          63.1391   89.3697   12.6575 S.O2    1  UNL1        0.0456
      2 O          61.7858   89.4920   12.0223 O.2     1  UNL1       -0.1572
      3 O          64.4924   89.2475   13.2927 O.2     1  UNL1       -0.1572
      4 N          63.0825   87.8800   12.4913 N.3     1  UNL1       -0.1559
      5 C          63.7230   86.9866   13.5118 C.3     1  UNL1        0.1168
      6 C          63.6663   85.4969   13.3455 C.3     1  UNL1        0.1099
      7 N          62.9693   84.9007   12.1587 N.pl3   1  UNL1       -0.3045
      8 C          62.3288   85.7941   11.1381 C.3     1  UNL1        0.1099
      9 C          62.3854   87.2838   11.3044 C.3     1  UNL1        0.1168
     10 C          62.9127   83.4110   11.9924 C.ar    1  UNL1        0.0481
     11 C          62.3772   82.5525   13.0998 C.ar    1  UNL1        0.0168
     12 C          62.3206   81.0628   12.9335 C.ar    1  UNL1        0.0309
     13 C          62.7995   80.4316   11.6598 C.ar    1  UNL1        0.1402
     14 F          62.7429   78.9419   11.4935 F       1  UNL1       -0.2042
     15 C          63.3349   81.2901   10.5524 C.ar    1  UNL1        0.0309
     16 C          63.3915   82.7797   10.7187 C.ar    1  UNL1        0.0168
     17 C          63.1957   90.8594   12.8238 C.3     1  UNL1        0.1897
     18 C          64.4630   91.5148   13.2867 C.3     1  UNL1        0.1148
     19 C          64.6332   91.6385   11.8015 C.3     1  UNL1        0.0546
     20 C          65.8588   92.2956   11.2392 C.3     1  UNL1        0.1440
     21 O          66.9141   92.8290   12.1621 O.3     1  UNL1       -0.3537
     22 C          66.7439   92.7053   13.6473 C.3     1  UNL1        0.1440
     23 C          65.5183   92.0482   14.2095 C.3     1  UNL1        0.0546
     24 O          63.8794   91.2920   17.2058 O.2     1  UNL1       -0.2627
     25 C          64.4898   91.6433   15.8814 C.2     1  UNL1        0.3268
     26 N          63.8526   91.1635   14.6111 N.am    1  UNL1       -0.1661
     27 O          62.6051   90.3323   14.6652 O.3     1  UNL1       -0.2915
     28 H          62.3457   90.1984   15.5902 H       1  UNL1        0.2417
@<TRIPOS>BOND
     1    24    25    2
     2    25    26   am
     3    26    27    1
     4    26    18    1
     5    18    17    1
     6    17     1    1
     7     1     2    2
     8     1     3    2
     9     1     4    1
    10     4     5    1
    11     5     6    1
    12     6     7    1
    13     7    10    1
    14    10    11   ar
    15    11    12   ar
    16    12    13   ar
    17    13    14    1
    18    13    15   ar
    19    15    16   ar
    20     7     8    1
    21     8     9    1
    22    18    19    1
    23    19    20    1
    24    20    21    1
    25    21    22    1
    26    22    23    1
    27    23    18    1
    28     9     4    1
    29    16    10   ar
    30    27    28    1
