@<TRIPOS>MOLECULE
*****
 33 35 0 0 0
SMALL
GASTEIGER

@<TRIPOS>ATOM
      1 C          63.7534   85.8377   13.5531 C.ar    1  UNL1        0.1306
      2 C          63.4915   87.2320   13.0659 C.ar    1  UNL1        0.0115
      3 C          62.6305   87.4551   11.8580 C.ar    1  UNL1       -0.0048
      4 C          62.0315   86.2839   11.1373 C.ar    1  UNL1       -0.0102
      5 C          62.2934   84.8896   11.6245 C.ar    1  UNL1       -0.0048
      6 C          63.1543   84.6665   12.8324 C.ar    1  UNL1        0.0106
      7 C          61.1705   86.5070    9.9294 C.3     1  UNL1        0.1227
      8 C          61.4378   85.7432    8.6664 C.2     1  UNL1       -0.0115
      9 C          60.5769   85.9662    7.4586 C.2     1  UNL1        0.0141
     10 C          59.4486   86.9531    7.5136 C.2     1  UNL1        0.0883
     11 N          59.1813   87.7169    8.7766 N.am    1  UNL1       -0.1774
     12 C          60.0423   87.4939    9.9845 C.2     1  UNL1        0.2533
     13 O          59.7750   88.2577   11.2475 O.2     1  UNL1       -0.2723
     14 C          63.4162   83.2722   13.3196 C.3     1  UNL1        0.0218
     15 C          62.2701   83.3924   14.2797 C.3     1  UNL1        0.0045
     16 C          64.5624   83.1520   12.3595 C.3     1  UNL1        0.0045
     17 C          63.6780   81.8779   13.8068 C.3     1  UNL1        0.0045
     18 C          64.0224   85.7254   16.1347 C.3     1  UNL1        0.2524
     19 O          64.6143   85.6146   14.7610 O.3     1  UNL1       -0.4721
     20 C          64.0906   88.4032   13.7866 C.3     1  UNL1        0.0341
     21 C          63.4907   89.7688   13.6269 C.3     1  UNL1        0.0311
     22 C          64.3241   90.8964   13.0939 C.ar    1  UNL1       -0.0218
     23 C          64.0990   91.4013   11.6995 C.ar    1  UNL1       -0.0029
     24 C          64.9323   92.5289   11.1666 C.ar    1  UNL1        0.0155
     25 C          65.9907   93.1516   12.0280 C.ar    1  UNL1        0.0644
     26 C          66.2158   92.6466   13.4223 C.ar    1  UNL1        0.0155
     27 C          65.3825   91.5191   13.9553 C.ar    1  UNL1       -0.0029
     28 N          66.8241   94.2792   11.4949 N.pl3   1  UNL1       -0.2187
     29 H          67.2312   94.9263   12.1152 H       1  UNL1        0.1734
     30 S          67.0371   94.4208   10.0169 S.O2    1  UNL1        0.0558
     31 C          67.2501   94.5624    8.5389 C.3     1  UNL1        0.1996
     32 O          68.0902   93.3539   10.0665 O.2     1  UNL1       -0.1544
     33 O          65.9839   95.4877    9.9674 O.2     1  UNL1       -0.1544
@<TRIPOS>BOND
     1    18    19    1
     2    19     1    1
     3     1     2   ar
     4     2    20    1
     5    20    21    1
     6    21    22    1
     7    22    23   ar
     8    23    24   ar
     9    24    25   ar
    10    25    28    1
    11    28    30    1
    12    30    31    1
    13    30    32    2
    14    30    33    2
    15    25    26   ar
    16    26    27   ar
    17     2     3   ar
    18     3     4   ar
    19     4     7    1
    20     7     8    1
    21     8     9    2
    22     9    10    1
    23    10    11    2
    24    11    12    1
    25    12    13    2
    26     4     5   ar
    27     5     6   ar
    28     6    14    1
    29    14    15    1
    30    14    16    1
    31    14    17    1
    32     6     1   ar
    33    27    22   ar
    34    12     7    1
    35    28    29    1
@<TRIPOS>MOLECULE
*****
 33 35 0 0 0
SMALL
GASTEIGER

@<TRIPOS>ATOM
      1 C          65.4945   92.1849   12.8435 C.ar    1  UNL1        0.1306
      2 C          64.5878   91.2725   13.6150 C.ar    1  UNL1        0.0115
      3 C          63.5278   90.4882   12.8999 C.ar    1  UNL1       -0.0048
      4 C          63.3747   90.6163   11.4133 C.ar    1  UNL1       -0.0102
      5 C          64.2814   91.5288   10.6418 C.ar    1  UNL1       -0.0048
      6 C          65.3413   92.3131   11.3569 C.ar    1  UNL1        0.0106
      7 C          62.3147   89.8320   10.6981 C.3     1  UNL1        0.1227
      8 C          61.4377   90.5064    9.6852 C.2     1  UNL1       -0.0115
      9 C          60.3778   89.7221    8.9701 C.2     1  UNL1        0.0141
     10 C          60.1949   88.2634    9.2678 C.2     1  UNL1        0.0883
     11 N          61.0719   87.5890   10.2807 N.am    1  UNL1       -0.1774
     12 C          62.1318   88.3733   10.9959 C.2     1  UNL1        0.2533
     13 O          63.0088   87.6989   12.0088 O.2     1  UNL1       -0.2723
     14 C          66.2481   93.2255   10.5854 C.3     1  UNL1        0.0218
     15 C          67.1978   92.0874   10.3556 C.3     1  UNL1        0.0045
     16 C          65.2985   94.3636   10.8152 C.3     1  UNL1        0.0045
     17 C          67.1549   94.1379    9.8139 C.3     1  UNL1        0.0045
     18 C          67.8387   92.3046   13.9572 C.3     1  UNL1        0.2524
     19 O          66.5545   92.9692   13.5587 O.3     1  UNL1       -0.4721
     20 C          64.7409   91.1443   15.1017 C.3     1  UNL1        0.0341
     21 C          63.6862   90.4448   15.9068 C.3     1  UNL1        0.0311
     22 C          63.6777   88.9472   15.9919 C.ar    1  UNL1       -0.0218
     23 C          62.9630   88.2641   17.1200 C.ar    1  UNL1       -0.0029
     24 C          62.9546   86.7666   17.2051 C.ar    1  UNL1        0.0155
     25 C          63.6609   85.9521   16.1621 C.ar    1  UNL1        0.0644
     26 C          64.3756   86.6352   15.0340 C.ar    1  UNL1        0.0155
     27 C          64.3840   88.1327   14.9489 C.ar    1  UNL1       -0.0029
     28 N          63.6524   84.4545   16.2472 N.pl3   1  UNL1       -0.2187
     29 H          64.0286   84.0043   17.0378 H       1  UNL1        0.1734
     30 S          63.0708   83.6430   15.1278 S.O2    1  UNL1        0.0558
     31 C          62.4891   82.8314   14.0085 C.3     1  UNL1        0.1996
     32 O          64.2922   82.7723   15.1244 O.2     1  UNL1       -0.1544
     33 O          61.8493   84.5136   15.1313 O.2     1  UNL1       -0.1544
@<TRIPOS>BOND
     1    18    19    1
     2    19     1    1
     3     1     2   ar
     4     2    20    1
     5    20    21    1
     6    21    22    1
     7    22    23   ar
     8    23    24   ar
     9    24    25   ar
    10    25    28    1
    11    28    30    1
    12    30    31    1
    13    30    32    2
    14    30    33    2
    15    25    26   ar
    16    26    27   ar
    17     2     3   ar
    18     3     4   ar
    19     4     7    1
    20     7     8    1
    21     8     9    2
    22     9    10    1
    23    10    11    2
    24    11    12    1
    25    12    13    2
    26     4     5   ar
    27     5     6   ar
    28     6    14    1
    29    14    15    1
    30    14    16    1
    31    14    17    1
    32     6     1   ar
    33    27    22   ar
    34    12     7    1
    35    28    29    1
@<TRIPOS>MOLECULE
*****
 33 35 0 0 0
SMALL
GASTEIGER

@<TRIPOS>ATOM
      1 C          61.7850   87.7040    9.6830 C.ar    1  UNL1        0.1306
      2 C          62.1572   88.2586   11.0261 C.ar    1  UNL1        0.0115
      3 C          62.6145   87.3370   12.1176 C.ar    1  UNL1       -0.0048
      4 C          62.6998   85.8607   11.8661 C.ar    1  UNL1       -0.0102
      5 C          62.3276   85.3061   10.5230 C.ar    1  UNL1       -0.0048
      6 C          61.8703   86.2277    9.4315 C.ar    1  UNL1        0.0106
      7 C          63.1571   84.9391   12.9576 C.3     1  UNL1        0.1227
      8 C          62.9003   83.4652   12.8514 C.2     1  UNL1       -0.0115
      9 C          63.3576   82.5435   13.9429 C.2     1  UNL1        0.0141
     10 C          64.0719   83.0959   15.1407 C.2     1  UNL1        0.0883
     11 N          64.3287   84.5699   15.2469 N.am    1  UNL1       -0.1774
     12 C          63.8714   85.4915   14.1554 C.2     1  UNL1        0.2533
     13 O          64.1283   86.9656   14.2617 O.2     1  UNL1       -0.2723
     14 C          61.4981   85.6730    8.0884 C.3     1  UNL1        0.0218
     15 C          60.0781   86.1056    8.3032 C.3     1  UNL1        0.0045
     16 C          62.9182   85.2403    7.8736 C.3     1  UNL1        0.0045
     17 C          61.1260   85.1183    6.7454 C.3     1  UNL1        0.0045
     18 C          60.0000   89.3152    8.6994 C.3     1  UNL1        0.2524
     19 O          61.3277   88.6256    8.5915 O.3     1  UNL1       -0.4721
     20 C          62.0720   89.7350   11.2776 C.3     1  UNL1        0.0341
     21 C          63.0549   90.6642   10.6293 C.3     1  UNL1        0.0311
     22 C          64.0507   91.4076   11.4694 C.ar    1  UNL1       -0.0218
     23 C          64.8944   92.4850   10.8550 C.ar    1  UNL1       -0.0029
     24 C          65.8903   93.2283   11.6951 C.ar    1  UNL1        0.0155
     25 C          66.0424   92.8943   13.1495 C.ar    1  UNL1        0.0644
     26 C          65.1987   91.8170   13.7638 C.ar    1  UNL1        0.0155
     27 C          64.2029   91.0736   12.9238 C.ar    1  UNL1       -0.0029
     28 N          67.0383   93.6377   13.9895 N.pl3   1  UNL1       -0.2187
     29 H          67.1353   94.6124   13.8909 H       1  UNL1        0.1734
     30 S          67.8863   92.8960   14.9798 S.O2    1  UNL1        0.0558
     31 C          68.7343   92.1543   15.9701 C.3     1  UNL1        0.1996
     32 O          68.6967   92.3219   13.8558 O.2     1  UNL1       -0.1544
     33 O          67.0758   93.4702   16.1038 O.2     1  UNL1       -0.1544
@<TRIPOS>BOND
     1    18    19    1
     2    19     1    1
     3     1     2   ar
     4     2    20    1
     5    20    21    1
     6    21    22    1
     7    22    23   ar
     8    23    24   ar
     9    24    25   ar
    10    25    28    1
    11    28    30    1
    12    30    31    1
    13    30    32    2
    14    30    33    2
    15    25    26   ar
    16    26    27   ar
    17     2     3   ar
    18     3     4   ar
    19     4     7    1
    20     7     8    1
    21     8     9    2
    22     9    10    1
    23    10    11    2
    24    11    12    1
    25    12    13    2
    26     4     5   ar
    27     5     6   ar
    28     6    14    1
    29    14    15    1
    30    14    16    1
    31    14    17    1
    32     6     1   ar
    33    27    22   ar
    34    12     7    1
    35    28    29    1
@<TRIPOS>MOLECULE
*****
 33 35 0 0 0
SMALL
GASTEIGER

@<TRIPOS>ATOM
      1 C          61.9116   87.6867    9.9614 C.ar    1  UNL1        0.1306
      2 C          62.3611   88.1013   11.3311 C.ar    1  UNL1        0.0115
      3 C          62.7651   87.0621   12.3345 C.ar    1  UNL1       -0.0048
      4 C          62.7197   85.6082   11.9682 C.ar    1  UNL1       -0.0102
      5 C          62.2702   85.1936   10.5985 C.ar    1  UNL1       -0.0048
      6 C          61.8662   86.2328    9.5951 C.ar    1  UNL1        0.0106
      7 C          63.1237   84.5690   12.9716 C.3     1  UNL1        0.1227
      8 C          62.9227   83.1141   12.6669 C.2     1  UNL1       -0.0115
      9 C          63.3267   82.0749   13.6703 C.2     1  UNL1        0.0141
     10 C          63.9317   82.4906   14.9784 C.2     1  UNL1        0.0883
     11 N          64.1326   83.9455   15.2831 N.am    1  UNL1       -0.1774
     12 C          63.7286   84.9847   14.2797 C.2     1  UNL1        0.2533
     13 O          63.9296   86.4396   14.5845 O.2     1  UNL1       -0.2723
     14 C          61.4167   85.8181    8.2254 C.3     1  UNL1        0.0218
     15 C          62.8128   85.3755    7.9014 C.3     1  UNL1        0.0045
     16 C          60.0207   86.2607    8.5495 C.3     1  UNL1        0.0045
     17 C          60.9673   85.4034    6.8558 C.3     1  UNL1        0.0045
     18 C          60.2160   89.4695    9.1271 C.3     1  UNL1        0.2524
     19 O          61.5076   88.7259    8.9580 O.3     1  UNL1       -0.4721
     20 C          62.4066   89.5552   11.6974 C.3     1  UNL1        0.0341
     21 C          63.4371   90.0524   12.6674 C.3     1  UNL1        0.0311
     22 C          64.3094   91.2172   12.3035 C.ar    1  UNL1       -0.0218
     23 C          64.2713   91.7770   10.9124 C.ar    1  UNL1       -0.0029
     24 C          65.1435   92.9418   10.5485 C.ar    1  UNL1        0.0155
     25 C          66.0539   93.5468   11.5758 C.ar    1  UNL1        0.0644
     26 C          66.0919   92.9870   12.9669 C.ar    1  UNL1        0.0155
     27 C          65.2197   91.8222   13.3307 C.ar    1  UNL1       -0.0029
     28 N          66.9262   94.7116   11.2119 N.pl3   1  UNL1       -0.2187
     29 H          67.3488   95.2501   11.9195 H       1  UNL1        0.1734
     30 S          67.1545   95.0560    9.7700 S.O2    1  UNL1        0.0558
     31 C          67.3829   95.4003    8.3280 C.3     1  UNL1        0.1996
     32 O          66.0558   96.0747    9.8393 O.2     1  UNL1       -0.1544
     33 O          68.2532   94.0372    9.7007 O.2     1  UNL1       -0.1544
@<TRIPOS>BOND
     1    18    19    1
     2    19     1    1
     3     1     2   ar
     4     2    20    1
     5    20    21    1
     6    21    22    1
     7    22    23   ar
     8    23    24   ar
     9    24    25   ar
    10    25    28    1
    11    28    30    1
    12    30    31    1
    13    30    32    2
    14    30    33    2
    15    25    26   ar
    16    26    27   ar
    17     2     3   ar
    18     3     4   ar
    19     4     7    1
    20     7     8    1
    21     8     9    2
    22     9    10    1
    23    10    11    2
    24    11    12    1
    25    12    13    2
    26     4     5   ar
    27     5     6   ar
    28     6    14    1
    29    14    15    1
    30    14    16    1
    31    14    17    1
    32     6     1   ar
    33    27    22   ar
    34    12     7    1
    35    28    29    1
@<TRIPOS>MOLECULE
*****
 33 35 0 0 0
SMALL
GASTEIGER

@<TRIPOS>ATOM
      1 C          61.8857   87.6796   10.0340 C.ar    1  UNL1        0.1306
      2 C          62.3597   88.0376   11.4114 C.ar    1  UNL1        0.0115
      3 C          62.7484   86.9562   12.3755 C.ar    1  UNL1       -0.0048
      4 C          62.6630   85.5168   11.9623 C.ar    1  UNL1       -0.0102
      5 C          62.1890   85.1588   10.5849 C.ar    1  UNL1       -0.0048
      6 C          61.8003   86.2402    9.6208 C.ar    1  UNL1        0.0106
      7 C          63.0516   84.4353   12.9264 C.3     1  UNL1        0.1227
      8 C          62.4995   84.4400   14.3210 C.2     1  UNL1       -0.0115
      9 C          62.8881   83.3586   15.2851 C.2     1  UNL1        0.0141
     10 C          63.8289   82.2725   14.8546 C.2     1  UNL1        0.0883
     11 N          64.3810   82.2679   13.4599 N.am    1  UNL1       -0.1774
     12 C          63.9923   83.3493   12.4958 C.2     1  UNL1        0.2533
     13 O          64.5445   83.3446   11.1011 O.2     1  UNL1       -0.2723
     14 C          61.3263   85.8822    8.2434 C.3     1  UNL1        0.0218
     15 C          62.7057   85.4095    7.8916 C.3     1  UNL1        0.0045
     16 C          59.9469   86.3548    8.5952 C.3     1  UNL1        0.0045
     17 C          60.8523   85.5241    6.8661 C.3     1  UNL1        0.0045
     18 C          60.2137   89.5128    9.2637 C.3     1  UNL1        0.2524
     19 O          61.4971   88.7610    9.0699 O.3     1  UNL1       -0.4721
     20 C          62.4452   89.4770   11.8247 C.3     1  UNL1        0.0341
     21 C          63.5485   89.9323   12.7331 C.3     1  UNL1        0.0311
     22 C          64.3807   91.1244   12.3633 C.ar    1  UNL1       -0.0218
     23 C          65.2984   91.7417   13.3765 C.ar    1  UNL1       -0.0029
     24 C          66.1305   92.9337   13.0068 C.ar    1  UNL1        0.0155
     25 C          66.0448   93.5084   11.6239 C.ar    1  UNL1        0.0644
     26 C          65.1270   92.8910   10.6107 C.ar    1  UNL1        0.0155
     27 C          64.2950   91.6990   10.9804 C.ar    1  UNL1       -0.0029
     28 N          66.8769   94.7004   11.2541 N.pl3   1  UNL1       -0.2187
     29 H          67.2830   95.2550   11.9590 H       1  UNL1        0.1734
     30 S          67.0903   95.0475    9.8106 S.O2    1  UNL1        0.0558
     31 C          67.3037   95.3946    8.3670 C.3     1  UNL1        0.1996
     32 O          68.2305   94.0751    9.7453 O.2     1  UNL1       -0.1544
     33 O          65.9501   96.0200    9.8759 O.2     1  UNL1       -0.1544
@<TRIPOS>BOND
     1    18    19    1
     2    19     1    1
     3     1     2   ar
     4     2    20    1
     5    20    21    1
     6    21    22    1
     7    22    23   ar
     8    23    24   ar
     9    24    25   ar
    10    25    28    1
    11    28    30    1
    12    30    31    1
    13    30    32    2
    14    30    33    2
    15    25    26   ar
    16    26    27   ar
    17     2     3   ar
    18     3     4   ar
    19     4     7    1
    20     7     8    1
    21     8     9    2
    22     9    10    1
    23    10    11    2
    24    11    12    1
    25    12    13    2
    26     4     5   ar
    27     5     6   ar
    28     6    14    1
    29    14    15    1
    30    14    16    1
    31    14    17    1
    32     6     1   ar
    33    27    22   ar
    34    12     7    1
    35    28    29    1
@<TRIPOS>MOLECULE
*****
 33 35 0 0 0
SMALL
GASTEIGER

@<TRIPOS>ATOM
      1 C          65.3640   91.9376   12.7714 C.ar    1  UNL1        0.1306
      2 C          64.2155   91.0977   12.2966 C.ar    1  UNL1        0.0115
      3 C          63.7808   89.9028   13.0923 C.ar    1  UNL1       -0.0048
      4 C          64.4946   89.5478   14.3629 C.ar    1  UNL1       -0.0102
      5 C          65.6430   90.3877   14.8378 C.ar    1  UNL1       -0.0048
      6 C          66.0777   91.5826   14.0420 C.ar    1  UNL1        0.0106
      7 C          64.0599   88.3529   15.1587 C.3     1  UNL1        0.1227
      8 C          64.4883   86.9774   14.7410 C.2     1  UNL1       -0.0115
      9 C          64.0535   85.7825   15.5367 C.2     1  UNL1        0.0141
     10 C          63.1904   85.9631   16.7502 C.2     1  UNL1        0.0883
     11 N          62.7620   87.3386   17.1678 N.am    1  UNL1       -0.1774
     12 C          63.1967   88.5335   16.3721 C.2     1  UNL1        0.2533
     13 O          62.7683   89.9090   16.7898 O.2     1  UNL1       -0.2723
     14 C          67.2262   92.4226   14.5170 C.3     1  UNL1        0.0218
     15 C          66.3205   93.1064   15.4978 C.3     1  UNL1        0.0045
     16 C          68.1320   91.7388   13.5361 C.3     1  UNL1        0.0045
     17 C          68.3747   93.2625   14.9919 C.3     1  UNL1        0.0045
     18 C          66.5251   92.9448   10.6768 C.3     1  UNL1        0.2524
     19 O          65.7987   93.1326   11.9757 O.3     1  UNL1       -0.4721
     20 C          63.5017   91.4527   11.0259 C.3     1  UNL1        0.0341
     21 C          62.0805   91.0205   10.8182 C.3     1  UNL1        0.0311
     22 C          61.7834   89.6485   10.2895 C.ar    1  UNL1       -0.0218
     23 C          60.7974   89.4722    9.1730 C.ar    1  UNL1       -0.0029
     24 C          60.5004   88.1002    8.6444 C.ar    1  UNL1        0.0155
     25 C          61.1894   86.9046    9.2323 C.ar    1  UNL1        0.0644
     26 C          62.1754   87.0808   10.3488 C.ar    1  UNL1        0.0155
     27 C          62.4724   88.4528   10.8774 C.ar    1  UNL1       -0.0029
     28 N          60.8923   85.5326    8.7036 N.pl3   1  UNL1       -0.2187
     29 H          60.3190   84.9200    9.2187 H       1  UNL1        0.1734
     30 S          61.4688   85.0939    7.3901 S.O2    1  UNL1        0.0558
     31 C          62.0452   84.6552    6.0767 C.3     1  UNL1        0.1996
     32 O          60.0986   85.1194    6.7803 O.2     1  UNL1       -0.1544
     33 O          62.8389   85.0684    8.0000 O.2     1  UNL1       -0.1544
@<TRIPOS>BOND
     1    18    19    1
     2    19     1    1
     3     1     2   ar
     4     2    20    1
     5    20    21    1
     6    21    22    1
     7    22    23   ar
     8    23    24   ar
     9    24    25   ar
    10    25    28    1
    11    28    30    1
    12    30    31    1
    13    30    32    2
    14    30    33    2
    15    25    26   ar
    16    26    27   ar
    17     2     3   ar
    18     3     4   ar
    19     4     7    1
    20     7     8    1
    21     8     9    2
    22     9    10    1
    23    10    11    2
    24    11    12    1
    25    12    13    2
    26     4     5   ar
    27     5     6   ar
    28     6    14    1
    29    14    15    1
    30    14    16    1
    31    14    17    1
    32     6     1   ar
    33    27    22   ar
    34    12     7    1
    35    28    29    1
@<TRIPOS>MOLECULE
*****
 33 35 0 0 0
SMALL
GASTEIGER

@<TRIPOS>ATOM
      1 C          65.2522   91.4203   13.9759 C.ar    1  UNL1        0.1306
      2 C          64.3470   91.4426   12.7800 C.ar    1  UNL1        0.0115
      3 C          64.6550   92.3461   11.6230 C.ar    1  UNL1       -0.0048
      4 C          65.8681   93.2274   11.6617 C.ar    1  UNL1       -0.0102
      5 C          66.7733   93.2052   12.8576 C.ar    1  UNL1       -0.0048
      6 C          66.4654   92.3016   14.0146 C.ar    1  UNL1        0.0106
      7 C          66.1761   94.1310   10.5047 C.3     1  UNL1        0.1227
      8 C          65.5155   95.4740   10.4053 C.2     1  UNL1       -0.0115
      9 C          65.8234   96.3775    9.2483 C.2     1  UNL1        0.0141
     10 C          66.7919   95.9381    8.1906 C.2     1  UNL1        0.0883
     11 N          67.4525   94.5951    8.2899 N.am    1  UNL1       -0.1774
     12 C          67.1446   93.6915    9.4470 C.2     1  UNL1        0.2533
     13 O          67.8052   92.3484    9.5463 O.2     1  UNL1       -0.2723
     14 C          67.3707   92.2794   15.2105 C.3     1  UNL1        0.0218
     15 C          68.4213   91.5775   14.4021 C.3     1  UNL1        0.0045
     16 C          66.3201   92.9813   16.0189 C.3     1  UNL1        0.0045
     17 C          68.2760   92.2571   16.4063 C.3     1  UNL1        0.0045
     18 C          63.8032   90.8376   16.0521 C.3     1  UNL1        0.2524
     19 O          64.9443   90.5168   15.1329 O.3     1  UNL1       -0.4721
     20 C          63.1338   90.5613   12.7412 C.3     1  UNL1        0.0341
     21 C          63.1430   89.3084   11.9165 C.3     1  UNL1        0.0311
     22 C          63.3649   87.9788   12.5747 C.ar    1  UNL1       -0.0218
     23 C          62.8345   86.7288   11.9377 C.ar    1  UNL1       -0.0029
     24 C          63.0565   85.3993   12.5958 C.ar    1  UNL1        0.0155
     25 C          63.8089   85.3199   13.8910 C.ar    1  UNL1        0.0644
     26 C          64.3393   86.5700   14.5281 C.ar    1  UNL1        0.0155
     27 C          64.1174   87.8995   13.8699 C.ar    1  UNL1       -0.0029
     28 N          64.0308   83.9904   14.5492 N.pl3   1  UNL1       -0.2187
     29 H          64.8497   83.8304   15.0718 H       1  UNL1        0.1734
     30 S          63.0052   82.9046   14.4111 S.O2    1  UNL1        0.0558
     31 C          61.9795   81.8189   14.2730 C.3     1  UNL1        0.1996
     32 O          63.9169   82.1617   13.4802 O.2     1  UNL1       -0.1544
     33 O          62.0934   83.6475   15.3421 O.2     1  UNL1       -0.1544
@<TRIPOS>BOND
     1    18    19    1
     2    19     1    1
     3     1     2   ar
     4     2    20    1
     5    20    21    1
     6    21    22    1
     7    22    23   ar
     8    23    24   ar
     9    24    25   ar
    10    25    28    1
    11    28    30    1
    12    30    31    1
    13    30    32    2
    14    30    33    2
    15    25    26   ar
    16    26    27   ar
    17     2     3   ar
    18     3     4   ar
    19     4     7    1
    20     7     8    1
    21     8     9    2
    22     9    10    1
    23    10    11    2
    24    11    12    1
    25    12    13    2
    26     4     5   ar
    27     5     6   ar
    28     6    14    1
    29    14    15    1
    30    14    16    1
    31    14    17    1
    32     6     1   ar
    33    27    22   ar
    34    12     7    1
    35    28    29    1
@<TRIPOS>MOLECULE
*****
 33 35 0 0 0
SMALL
GASTEIGER

@<TRIPOS>ATOM
      1 C          65.2696   91.4931   13.6240 C.ar    1  UNL1        0.1306
      2 C          64.3525   91.6009   12.4420 C.ar    1  UNL1        0.0115
      3 C          64.6406   92.5962   11.3574 C.ar    1  UNL1       -0.0048
      4 C          65.8459   93.4838   11.4549 C.ar    1  UNL1       -0.0102
      5 C          66.7630   93.3760   12.6369 C.ar    1  UNL1       -0.0048
      6 C          66.4749   92.3807   13.7215 C.ar    1  UNL1        0.0106
      7 C          66.1340   94.4791   10.3703 C.3     1  UNL1        0.1227
      8 C          65.4263   95.8016   10.3587 C.2     1  UNL1       -0.0115
      9 C          65.7144   96.7969    9.2741 C.2     1  UNL1        0.0141
     10 C          66.7102   96.4698    8.2012 C.2     1  UNL1        0.0883
     11 N          67.4179   95.1473    8.2128 N.am    1  UNL1       -0.1774
     12 C          67.1298   94.1520    9.2973 C.2     1  UNL1        0.2533
     13 O          67.8376   92.8294    9.3089 O.2     1  UNL1       -0.2723
     14 C          67.3921   92.2730   14.9036 C.3     1  UNL1        0.0218
     15 C          66.3641   92.9476   15.7626 C.3     1  UNL1        0.0045
     16 C          68.4201   91.5983   14.0445 C.3     1  UNL1        0.0045
     17 C          68.3092   92.1653   16.0856 C.3     1  UNL1        0.0045
     18 C          63.8405   90.7285   15.6545 C.3     1  UNL1        0.2524
     19 O          64.9815   90.4978   14.7086 O.3     1  UNL1       -0.4721
     20 C          63.1472   90.7132   12.3445 C.3     1  UNL1        0.0341
     21 C          62.8594   89.9766   11.0700 C.3     1  UNL1        0.0311
     22 C          62.7165   88.4834   11.0825 C.ar    1  UNL1       -0.0218
     23 C          63.1431   87.6993   12.2880 C.ar    1  UNL1       -0.0029
     24 C          63.0002   86.2062   12.3005 C.ar    1  UNL1        0.0155
     25 C          62.4308   85.4972   11.1076 C.ar    1  UNL1        0.0644
     26 C          62.0042   86.2813    9.9021 C.ar    1  UNL1        0.0155
     27 C          62.1471   87.7744    9.8896 C.ar    1  UNL1       -0.0029
     28 N          62.2879   84.0040   11.1201 N.pl3   1  UNL1       -0.2187
     29 H          61.5022   83.5812   10.7040 H       1  UNL1        0.1734
     30 S          63.3421   83.1552   11.7667 S.O2    1  UNL1        0.0558
     31 C          64.3962   82.3063   12.4133 C.3     1  UNL1        0.1996
     32 O          64.2421   83.3742   10.5870 O.2     1  UNL1       -0.1544
     33 O          62.4420   82.9362   12.9465 O.2     1  UNL1       -0.1544
@<TRIPOS>BOND
     1    18    19    1
     2    19     1    1
     3     1     2   ar
     4     2    20    1
     5    20    21    1
     6    21    22    1
     7    22    23   ar
     8    23    24   ar
     9    24    25   ar
    10    25    28    1
    11    28    30    1
    12    30    31    1
    13    30    32    2
    14    30    33    2
    15    25    26   ar
    16    26    27   ar
    17     2     3   ar
    18     3     4   ar
    19     4     7    1
    20     7     8    1
    21     8     9    2
    22     9    10    1
    23    10    11    2
    24    11    12    1
    25    12    13    2
    26     4     5   ar
    27     5     6   ar
    28     6    14    1
    29    14    15    1
    30    14    16    1
    31    14    17    1
    32     6     1   ar
    33    27    22   ar
    34    12     7    1
    35    28    29    1
@<TRIPOS>MOLECULE
*****
 33 35 0 0 0
SMALL
GASTEIGER

@<TRIPOS>ATOM
      1 C          61.5605   87.9040    9.9932 C.ar    1  UNL1        0.1306
      2 C          62.3941   88.1106   11.2230 C.ar    1  UNL1        0.0115
      3 C          62.8586   86.9287   12.0215 C.ar    1  UNL1       -0.0048
      4 C          62.4896   85.5403   11.5902 C.ar    1  UNL1       -0.0102
      5 C          61.6560   85.3337   10.3604 C.ar    1  UNL1       -0.0048
      6 C          61.1914   86.5155    9.5619 C.ar    1  UNL1        0.0106
      7 C          62.9541   84.3585   12.3886 C.3     1  UNL1        0.1227
      8 C          62.5033   84.1892   13.8092 C.2     1  UNL1       -0.0115
      9 C          62.9679   83.0074   14.6076 C.2     1  UNL1        0.0141
     10 C          63.8832   81.9949   13.9855 C.2     1  UNL1        0.0883
     11 N          64.3340   82.1643   12.5650 N.am    1  UNL1       -0.1774
     12 C          63.8694   83.3461   11.7665 C.2     1  UNL1        0.2533
     13 O          64.3203   83.5154   10.3458 O.2     1  UNL1       -0.2723
     14 C          60.3578   86.3089    8.3321 C.3     1  UNL1        0.0218
     15 C          61.5311   85.6779    7.6428 C.3     1  UNL1        0.0045
     16 C          59.1845   86.9399    9.0213 C.3     1  UNL1        0.0045
     17 C          59.5242   86.1022    7.1023 C.3     1  UNL1        0.0045
     18 C          60.1362   90.0681    9.7981 C.3     1  UNL1        0.2524
     19 O          61.0959   89.0858    9.1948 O.3     1  UNL1       -0.4721
     20 C          62.7631   89.4990   11.6544 C.3     1  UNL1        0.0341
     21 C          63.1318   89.7673   13.0834 C.3     1  UNL1        0.0311
     22 C          64.2259   90.7417   13.4055 C.ar    1  UNL1       -0.0218
     23 C          64.6736   91.7345   12.3741 C.ar    1  UNL1       -0.0029
     24 C          65.7677   92.7088   12.6962 C.ar    1  UNL1        0.0155
     25 C          66.4139   92.6903   14.0497 C.ar    1  UNL1        0.0644
     26 C          65.9662   91.6975   15.0811 C.ar    1  UNL1        0.0155
     27 C          64.8722   90.7232   14.7590 C.ar    1  UNL1       -0.0029
     28 N          67.5080   93.6646   14.3718 N.pl3   1  UNL1       -0.2187
     29 H          67.4891   94.5708   13.9874 H       1  UNL1        0.1734
     30 S          68.6309   93.2583   15.2795 S.O2    1  UNL1        0.0558
     31 C          69.7539   92.8520   16.1872 C.3     1  UNL1        0.1996
     32 O          68.0560   94.1101   16.3721 O.2     1  UNL1       -0.1544
     33 O          69.2059   92.4066   14.1869 O.2     1  UNL1       -0.1544
@<TRIPOS>BOND
     1    18    19    1
     2    19     1    1
     3     1     2   ar
     4     2    20    1
     5    20    21    1
     6    21    22    1
     7    22    23   ar
     8    23    24   ar
     9    24    25   ar
    10    25    28    1
    11    28    30    1
    12    30    31    1
    13    30    32    2
    14    30    33    2
    15    25    26   ar
    16    26    27   ar
    17     2     3   ar
    18     3     4   ar
    19     4     7    1
    20     7     8    1
    21     8     9    2
    22     9    10    1
    23    10    11    2
    24    11    12    1
    25    12    13    2
    26     4     5   ar
    27     5     6   ar
    28     6    14    1
    29    14    15    1
    30    14    16    1
    31    14    17    1
    32     6     1   ar
    33    27    22   ar
    34    12     7    1
    35    28    29    1
