@<TRIPOS>MOLECULE
*****
 31 34 0 0 0
SMALL
GASTEIGER

@<TRIPOS>ATOM
      1 C          64.1190   89.1849   14.1750 C.ar    1  UNL1        0.0789
      2 C          64.5359   88.1008   15.1241 C.ar    1  UNL1        0.0178
      3 C          64.2745   86.6636   14.7828 C.ar    1  UNL1        0.0216
      4 C          63.5961   86.3107   13.4924 C.ar    1  UNL1        0.1294
      5 C          63.1792   87.3949   12.5432 C.ar    1  UNL1        0.1172
      6 N          63.4407   88.8319   12.8845 N.ar    1  UNL1       -0.2451
      7 S          63.3346   84.8737   13.1511 S.O2    1  UNL1        0.0291
      8 O          64.5863   84.4741   13.8746 O.2     1  UNL1       -0.1642
      9 O          62.0830   85.2733   12.4275 O.2     1  UNL1       -0.1642
     10 C          63.0732   83.4367   12.8097 C.ar    1  UNL1        0.1148
     11 C          63.4985   82.8927   11.4781 C.ar    1  UNL1        0.0485
     12 C          63.2371   81.4556   11.1368 C.ar    1  UNL1        0.1437
     13 F          63.6624   80.9117    9.8052 F       1  UNL1       -0.2041
     14 C          62.5503   80.5625   12.1270 C.ar    1  UNL1        0.0593
     15 C          62.1249   81.1064   13.4586 C.ar    1  UNL1        0.1437
     16 F          61.4381   80.2133   14.4489 F       1  UNL1       -0.2041
     17 C          62.3864   82.5435   13.8000 C.ar    1  UNL1        0.0485
     18 C          64.3805   90.6220   14.5163 C.3     1  UNL1        0.1361
     19 O          67.1948   91.5501   14.0494 O.2     1  UNL1       -0.2668
     20 C          66.0804   92.0744   13.1931 C.2     1  UNL1        0.2809
     21 N          64.6732   91.6103   13.4266 N.am    1  UNL1       -0.2931
     22 H          63.9418   91.9544   12.8646 H       1  UNL1        0.1502
     23 C          66.3731   93.0627   12.1034 C.ar    1  UNL1        0.1984
     24 C          66.9031   92.7386   10.7381 C.ar    1  UNL1        0.0453
     25 C          67.0448   94.0243    9.9786 C.ar    1  UNL1        0.0409
     26 C          67.5195   94.3208    8.5869 C.ar    1  UNL1        0.0238
     27 C          67.5519   95.7361    8.0912 C.ar    1  UNL1        0.0991
     28 N          67.1094   96.8549    8.9871 N.ar    1  UNL1       -0.2391
     29 C          66.6347   96.5584   10.3787 C.ar    1  UNL1        0.1362
     30 C          66.6024   95.1431   10.8744 C.ar    1  UNL1        0.1646
     31 O          66.1873   94.5488   12.1876 O.2     1  UNL1       -0.4473
@<TRIPOS>BOND
     1    19    20    2
     2    20    21   am
     3    21    18    1
     4    18     1    1
     5     1     2   ar
     6     2     3   ar
     7     3     4   ar
     8     4     7    1
     9     7     8    2
    10     7     9    2
    11     7    10    1
    12    10    11   ar
    13    11    12   ar
    14    12    13    1
    15    12    14   ar
    16    14    15   ar
    17    15    16    1
    18    15    17   ar
    19     4     5   ar
    20     5     6   ar
    21    20    23    1
    22    23    24   ar
    23    24    25   ar
    24    25    26   ar
    25    26    27   ar
    26    27    28   ar
    27    28    29   ar
    28    29    30   ar
    29    30    31   ar
    30     6     1   ar
    31    31    23   ar
    32    17    10   ar
    33    30    25   ar
    34    21    22    1
@<TRIPOS>MOLECULE
*****
 31 34 0 0 0
SMALL
GASTEIGER

@<TRIPOS>ATOM
      1 C          64.1596   89.0801   14.2660 C.ar    1  UNL1        0.0789
      2 C          64.5622   87.9899   15.2143 C.ar    1  UNL1        0.0178
      3 C          64.2856   86.5563   14.8699 C.ar    1  UNL1        0.0216
      4 C          63.6064   86.2131   13.5773 C.ar    1  UNL1        0.1294
      5 C          63.2038   87.3035   12.6290 C.ar    1  UNL1        0.1172
      6 N          63.4804   88.7369   12.9734 N.ar    1  UNL1       -0.2451
      7 S          63.3298   84.7797   13.2329 S.O2    1  UNL1        0.0291
      8 O          64.4305   84.3458   14.1549 O.2     1  UNL1       -0.1642
      9 O          62.2290   85.2136   12.3109 O.2     1  UNL1       -0.1642
     10 C          63.0531   83.3462   12.8885 C.ar    1  UNL1        0.1148
     11 C          62.3625   82.4566   13.8794 C.ar    1  UNL1        0.0485
     12 C          62.0859   81.0232   13.5350 C.ar    1  UNL1        0.1437
     13 F          61.3953   80.1336   14.5258 F       1  UNL1       -0.2041
     14 C          62.4999   80.4792   12.1998 C.ar    1  UNL1        0.0593
     15 C          63.1905   81.3687   11.2090 C.ar    1  UNL1        0.1437
     16 F          63.6045   80.8248    9.8738 F       1  UNL1       -0.2041
     17 C          63.4671   82.8023   11.5533 C.ar    1  UNL1        0.0485
     18 C          64.4362   90.5137   14.6104 C.3     1  UNL1        0.1361
     19 O          67.2030   91.6121   14.2388 O.2     1  UNL1       -0.2668
     20 C          66.0918   92.0569   13.3347 C.2     1  UNL1        0.2809
     21 N          64.7084   91.5077   13.5205 N.am    1  UNL1       -0.2931
     22 H          63.9791   91.7996   12.9271 H       1  UNL1        0.1502
     23 C          66.3640   93.0510   12.2449 C.ar    1  UNL1        0.1984
     24 C          66.9157   92.7396   10.8852 C.ar    1  UNL1        0.0453
     25 C          67.0250   94.0271   10.1233 C.ar    1  UNL1        0.0409
     26 C          67.5028   94.3344    8.7351 C.ar    1  UNL1        0.0238
     27 C          67.4965   95.7488    8.2357 C.ar    1  UNL1        0.0991
     28 N          67.0124   96.8559    9.1245 N.ar    1  UNL1       -0.2391
     29 C          66.5346   96.5486   10.5127 C.ar    1  UNL1        0.1362
     30 C          66.5409   95.1342   11.0121 C.ar    1  UNL1        0.1646
     31 O          66.1324   94.5309   12.3233 O.2     1  UNL1       -0.4473
@<TRIPOS>BOND
     1    19    20    2
     2    20    21   am
     3    21    18    1
     4    18     1    1
     5     1     2   ar
     6     2     3   ar
     7     3     4   ar
     8     4     7    1
     9     7     8    2
    10     7     9    2
    11     7    10    1
    12    10    11   ar
    13    11    12   ar
    14    12    13    1
    15    12    14   ar
    16    14    15   ar
    17    15    16    1
    18    15    17   ar
    19     4     5   ar
    20     5     6   ar
    21    20    23    1
    22    23    24   ar
    23    24    25   ar
    24    25    26   ar
    25    26    27   ar
    26    27    28   ar
    27    28    29   ar
    28    29    30   ar
    29    30    31   ar
    30     6     1   ar
    31    31    23   ar
    32    17    10   ar
    33    30    25   ar
    34    21    22    1
@<TRIPOS>MOLECULE
*****
 31 34 0 0 0
SMALL
GASTEIGER

@<TRIPOS>ATOM
      1 C          59.7170   88.5354    7.8916 C.ar    1  UNL1        0.0789
      2 C          59.7120   87.0503    7.6808 C.ar    1  UNL1        0.0178
      3 C          60.4460   86.1549    8.6346 C.ar    1  UNL1        0.0216
      4 C          61.1849   86.7447    9.7991 C.ar    1  UNL1        0.1294
      5 C          61.1899   88.2299   10.0098 C.ar    1  UNL1        0.1172
      6 N          60.4560   89.1252    9.0561 N.ar    1  UNL1       -0.2451
      7 S          61.9189   85.8495   10.7529 S.O2    1  UNL1        0.0291
      8 O          61.1462   86.4352   11.8973 O.2     1  UNL1       -0.1642
      9 O          62.6916   85.2637    9.6085 O.2     1  UNL1       -0.1642
     10 C          62.6529   84.9542   11.7067 C.ar    1  UNL1        0.1148
     11 C          62.6727   83.4716   11.4794 C.ar    1  UNL1        0.0485
     12 C          63.4066   82.5763   12.4331 C.ar    1  UNL1        0.1437
     13 F          63.4264   81.0938   12.2058 F       1  UNL1       -0.2041
     14 C          64.1208   83.1636   13.6143 C.ar    1  UNL1        0.0593
     15 C          64.1010   84.6461   13.8416 C.ar    1  UNL1        0.1437
     16 F          64.8152   85.2333   15.0228 F       1  UNL1       -0.2041
     17 C          63.3671   85.5414   12.8878 C.ar    1  UNL1        0.0485
     18 C          58.9830   89.4307    6.9377 C.3     1  UNL1        0.1361
     19 O          57.5980   91.5389    5.3138 O.2     1  UNL1       -0.2668
     20 C          59.0457   91.2330    5.0675 C.2     1  UNL1        0.2809
     21 N          59.7382   90.1789    5.8795 N.am    1  UNL1       -0.2931
     22 H          60.6883   89.9781    5.7178 H       1  UNL1        0.1502
     23 C          59.8008   91.9811    4.0092 C.ar    1  UNL1        0.1984
     24 C          61.2665   91.8550    3.7162 C.ar    1  UNL1        0.0453
     25 C          61.5945   92.7827    2.5840 C.ar    1  UNL1        0.0409
     26 C          62.8799   93.0809    1.8709 C.ar    1  UNL1        0.0238
     27 C          62.9024   94.0785    0.7510 C.ar    1  UNL1        0.0991
     28 N          61.6394   94.7780    0.3442 N.ar    1  UNL1       -0.2391
     29 C          60.3539   94.4798    1.0573 C.ar    1  UNL1        0.1362
     30 C          60.3314   93.4822    2.1772 C.ar    1  UNL1        0.1646
     31 O          59.2229   92.9868    3.0580 O.2     1  UNL1       -0.4473
@<TRIPOS>BOND
     1    19    20    2
     2    20    21   am
     3    21    18    1
     4    18     1    1
     5     1     2   ar
     6     2     3   ar
     7     3     4   ar
     8     4     7    1
     9     7     8    2
    10     7     9    2
    11     7    10    1
    12    10    11   ar
    13    11    12   ar
    14    12    13    1
    15    12    14   ar
    16    14    15   ar
    17    15    16    1
    18    15    17   ar
    19     4     5   ar
    20     5     6   ar
    21    20    23    1
    22    23    24   ar
    23    24    25   ar
    24    25    26   ar
    25    26    27   ar
    26    27    28   ar
    27    28    29   ar
    28    29    30   ar
    29    30    31   ar
    30     6     1   ar
    31    31    23   ar
    32    17    10   ar
    33    30    25   ar
    34    21    22    1
@<TRIPOS>MOLECULE
*****
 31 34 0 0 0
SMALL
GASTEIGER

@<TRIPOS>ATOM
      1 C          59.7120   88.5864    7.8845 C.ar    1  UNL1        0.0789
      2 C          60.4467   89.1788    9.0503 C.ar    1  UNL1        0.0178
      3 C          61.1832   88.2862   10.0047 C.ar    1  UNL1        0.0216
      4 C          61.1849   86.8011    9.7933 C.ar    1  UNL1        0.1294
      5 C          60.4501   86.2088    8.6274 C.ar    1  UNL1        0.1172
      6 N          59.7137   87.1014    7.6730 N.ar    1  UNL1       -0.2451
      7 S          61.9213   85.9085   10.7476 S.O2    1  UNL1        0.0291
      8 O          62.7157   85.3445    9.6071 O.2     1  UNL1       -0.1642
      9 O          61.1270   86.4726   11.8881 O.2     1  UNL1       -0.1642
     10 C          62.6578   85.0159   11.7020 C.ar    1  UNL1        0.1148
     11 C          63.3397   85.6019   12.9027 C.ar    1  UNL1        0.0485
     12 C          64.0762   84.7093   13.8570 C.ar    1  UNL1        0.1437
     13 F          64.7581   85.2953   15.0577 F       1  UNL1       -0.2041
     14 C          64.1307   83.2307   13.6107 C.ar    1  UNL1        0.0593
     15 C          63.4489   82.6446   12.4101 C.ar    1  UNL1        0.1437
     16 F          63.5034   81.1660   12.1638 F       1  UNL1       -0.2041
     17 C          62.7124   83.5373   11.4557 C.ar    1  UNL1        0.0485
     18 C          58.9755   89.4790    6.9301 C.3     1  UNL1        0.1361
     19 O          57.5957   91.5955    5.3126 O.2     1  UNL1       -0.2668
     20 C          59.0358   91.2697    5.0486 C.2     1  UNL1        0.2809
     21 N          59.7257   90.2114    5.8574 N.am    1  UNL1       -0.2931
     22 H          60.6710   89.9975    5.6841 H       1  UNL1        0.1502
     23 C          59.7861   92.0021    3.9759 C.ar    1  UNL1        0.1984
     24 C          61.2543   91.8865    3.6910 C.ar    1  UNL1        0.0453
     25 C          61.5755   92.7917    2.5388 C.ar    1  UNL1        0.0409
     26 C          62.8601   93.0884    1.8234 C.ar    1  UNL1        0.0238
     27 C          62.8750   94.0602    0.6809 C.ar    1  UNL1        0.0991
     28 N          61.6053   94.7351    0.2537 N.ar    1  UNL1       -0.2391
     29 C          60.3208   94.4384    0.9690 C.ar    1  UNL1        0.1362
     30 C          60.3059   93.4666    2.1116 C.ar    1  UNL1        0.1646
     31 O          59.2000   92.9786    2.9998 O.2     1  UNL1       -0.4473
@<TRIPOS>BOND
     1    19    20    2
     2    20    21   am
     3    21    18    1
     4    18     1    1
     5     1     2   ar
     6     2     3   ar
     7     3     4   ar
     8     4     7    1
     9     7     8    2
    10     7     9    2
    11     7    10    1
    12    10    11   ar
    13    11    12   ar
    14    12    13    1
    15    12    14   ar
    16    14    15   ar
    17    15    16    1
    18    15    17   ar
    19     4     5   ar
    20     5     6   ar
    21    20    23    1
    22    23    24   ar
    23    24    25   ar
    24    25    26   ar
    25    26    27   ar
    26    27    28   ar
    27    28    29   ar
    28    29    30   ar
    29    30    31   ar
    30     6     1   ar
    31    31    23   ar
    32    17    10   ar
    33    30    25   ar
    34    21    22    1
@<TRIPOS>MOLECULE
*****
 31 34 0 0 0
SMALL
GASTEIGER

@<TRIPOS>ATOM
      1 C          63.7359   89.3697   15.3652 C.ar    1  UNL1        0.0789
      2 C          64.7621   90.3846   15.7735 C.ar    1  UNL1        0.0178
      3 C          65.3590   91.3022   14.7479 C.ar    1  UNL1        0.0216
      4 C          64.9297   91.2048   13.3139 C.ar    1  UNL1        0.1294
      5 C          63.9035   90.1897   12.9056 C.ar    1  UNL1        0.1172
      6 N          63.3066   89.2722   13.9312 N.ar    1  UNL1       -0.2451
      7 S          65.5266   92.1223   12.2883 S.O2    1  UNL1        0.0291
      8 O          66.5414   92.5838   13.2918 O.2     1  UNL1       -0.1642
      9 O          64.5117   91.6608   11.2849 O.2     1  UNL1       -0.1642
     10 C          66.1234   93.0398   11.2628 C.ar    1  UNL1        0.1148
     11 C          65.7376   94.4891   11.2379 C.ar    1  UNL1        0.0485
     12 C          66.3344   95.4066   10.2123 C.ar    1  UNL1        0.1437
     13 F          65.9486   96.8559   10.1875 F       1  UNL1       -0.2041
     14 C          67.3171   94.8749    9.2115 C.ar    1  UNL1        0.0593
     15 C          67.7030   93.4256    9.2364 C.ar    1  UNL1        0.1437
     16 F          68.6857   92.8938    8.2356 F       1  UNL1       -0.2041
     17 C          67.1061   92.5080   10.2620 C.ar    1  UNL1        0.0485
     18 C          63.1390   88.4521   16.3908 C.3     1  UNL1        0.1361
     19 O          65.1502   86.7525   14.9534 O.2     1  UNL1       -0.2668
     20 C          63.8063   86.1874   15.3063 C.2     1  UNL1        0.2809
     21 N          62.8007   87.0373   16.0250 N.am    1  UNL1       -0.2931
     22 H          61.9186   86.6664   16.2566 H       1  UNL1        0.1502
     23 C          63.4679   84.7726   14.9405 C.ar    1  UNL1        0.1984
     24 C          62.0979   84.1620   14.9539 C.ar    1  UNL1        0.0453
     25 C          62.2235   82.7320   14.5188 C.ar    1  UNL1        0.0409
     26 C          61.2067   81.6433   14.3431 C.ar    1  UNL1        0.0238
     27 C          61.6375   80.2815   13.8852 C.ar    1  UNL1        0.0991
     28 N          63.0851   80.0083   13.6029 N.ar    1  UNL1       -0.2391
     29 C          64.1020   81.0970   13.7785 C.ar    1  UNL1        0.1362
     30 C          63.6711   82.4588   14.2364 C.ar    1  UNL1        0.1646
     31 O          64.4402   83.7200   14.4971 O.2     1  UNL1       -0.4473
@<TRIPOS>BOND
     1    19    20    2
     2    20    21   am
     3    21    18    1
     4    18     1    1
     5     1     2   ar
     6     2     3   ar
     7     3     4   ar
     8     4     7    1
     9     7     8    2
    10     7     9    2
    11     7    10    1
    12    10    11   ar
    13    11    12   ar
    14    12    13    1
    15    12    14   ar
    16    14    15   ar
    17    15    16    1
    18    15    17   ar
    19     4     5   ar
    20     5     6   ar
    21    20    23    1
    22    23    24   ar
    23    24    25   ar
    24    25    26   ar
    25    26    27   ar
    26    27    28   ar
    27    28    29   ar
    28    29    30   ar
    29    30    31   ar
    30     6     1   ar
    31    31    23   ar
    32    17    10   ar
    33    30    25   ar
    34    21    22    1
@<TRIPOS>MOLECULE
*****
 31 34 0 0 0
SMALL
GASTEIGER

@<TRIPOS>ATOM
      1 C          59.2153   90.4073    5.8135 C.ar    1  UNL1        0.0789
      2 C          58.3054   91.3219    5.0483 C.ar    1  UNL1        0.0178
      3 C          58.8617   92.2019    3.9684 C.ar    1  UNL1        0.0216
      4 C          60.3279   92.1672    3.6537 C.ar    1  UNL1        0.1294
      5 C          61.2378   91.2525    4.4189 C.ar    1  UNL1        0.1172
      6 N          60.6815   90.3726    5.4988 N.ar    1  UNL1       -0.2451
      7 S          60.8842   93.0472    2.5738 S.O2    1  UNL1        0.0291
      8 O          62.2482   92.4671    2.8039 O.2     1  UNL1       -0.1642
      9 O          59.5202   93.6272    2.3438 O.2     1  UNL1       -0.1642
     10 C          61.4406   93.9271    1.4940 C.ar    1  UNL1        0.1148
     11 C          60.5129   94.7012    0.6050 C.ar    1  UNL1        0.0485
     12 C          61.0692   95.5812   -0.4749 C.ar    1  UNL1        0.1437
     13 F          60.1415   96.3552   -1.3637 F       1  UNL1       -0.2041
     14 C          62.5532   95.6870   -0.6658 C.ar    1  UNL1        0.0593
     15 C          63.4809   94.9130    0.2230 C.ar    1  UNL1        0.1437
     16 F          64.9649   95.0188    0.0320 F       1  UNL1       -0.2041
     17 C          62.9246   94.0330    1.3030 C.ar    1  UNL1        0.0485
     18 C          58.6589   89.5273    6.8934 C.3     1  UNL1        0.1361
     19 O          60.0405   89.7784    9.5445 O.2     1  UNL1       -0.2668
     20 C          60.1651   88.5117    8.7509 C.2     1  UNL1        0.2809
     21 N          59.4744   88.3861    7.4253 N.am    1  UNL1       -0.2931
     22 H          59.5562   87.5547    6.9045 H       1  UNL1        0.1502
     23 C          60.9805   87.3706    9.2828 C.ar    1  UNL1        0.1984
     24 C          61.0505   86.9290   10.7146 C.ar    1  UNL1        0.0453
     25 C          61.9824   85.7562   10.7930 C.ar    1  UNL1        0.0409
     26 C          62.4356   84.9097   11.9453 C.ar    1  UNL1        0.0238
     27 C          63.3947   83.7798   11.7143 C.ar    1  UNL1        0.0991
     28 N          63.9006   83.4965   10.3309 N.ar    1  UNL1       -0.2391
     29 C          63.4475   84.3431    9.1786 C.ar    1  UNL1        0.1362
     30 C          62.4883   85.4729    9.4096 C.ar    1  UNL1        0.1646
     31 O          61.8691   86.4707    8.4763 O.2     1  UNL1       -0.4473
@<TRIPOS>BOND
     1    19    20    2
     2    20    21   am
     3    21    18    1
     4    18     1    1
     5     1     2   ar
     6     2     3   ar
     7     3     4   ar
     8     4     7    1
     9     7     8    2
    10     7     9    2
    11     7    10    1
    12    10    11   ar
    13    11    12   ar
    14    12    13    1
    15    12    14   ar
    16    14    15   ar
    17    15    16    1
    18    15    17   ar
    19     4     5   ar
    20     5     6   ar
    21    20    23    1
    22    23    24   ar
    23    24    25   ar
    24    25    26   ar
    25    26    27   ar
    26    27    28   ar
    27    28    29   ar
    28    29    30   ar
    29    30    31   ar
    30     6     1   ar
    31    31    23   ar
    32    17    10   ar
    33    30    25   ar
    34    21    22    1
