@<TRIPOS>MOLECULE
*****
 38 42 0 0 0
SMALL
GASTEIGER

@<TRIPOS>ATOM
      1 N          63.1609   89.1169   16.4020 N.ar    1  UNL1       -0.1994
      2 N          64.3135   90.0080   16.0450 N.ar    1  UNL1       -0.1460
      3 C          64.0955   90.5110   14.6487 C.ar    1  UNL1        0.1860
      4 C          64.9029   91.4223   13.7727 C.ar    1  UNL1        0.0423
      5 C          64.4230   91.7534   12.3906 C.ar    1  UNL1        0.0635
      6 C          63.1356   91.1732   11.8846 C.ar    1  UNL1        0.2757
      7 O          62.6557   91.5042   10.5026 O.2     1  UNL1       -0.2655
      8 N          62.3282   90.2618   12.7608 N.ar    1  UNL1       -0.2229
      9 N          62.8081   89.9307   14.1428 N.ar    1  UNL1       -0.1765
     10 C          62.2305   89.0692   15.2263 C.ar    1  UNL1        0.3669
     11 O          60.9477   88.2956   15.1480 O.2     1  UNL1       -0.2429
     12 C          66.1903   92.0026   14.2787 C.ar    1  UNL1        0.0032
     13 C          66.1803   92.9484   15.4428 C.ar    1  UNL1        0.0010
     14 C          67.4676   93.5286   15.9488 C.ar    1  UNL1        0.0114
     15 C          68.7650   93.1631   15.2906 C.ar    1  UNL1        0.0577
     16 CL         70.0523   93.7433   15.7966 Cl      1  UNL1       -0.0822
     17 C          68.7750   92.2172   14.1264 C.ar    1  UNL1        0.0114
     18 C          67.4876   91.6370   13.6204 C.ar    1  UNL1        0.0010
     19 C          65.2304   92.6648   11.5146 C.ar    1  UNL1        0.0432
     20 C          66.0548   92.0956   10.3981 C.ar    1  UNL1        0.1035
     21 N          66.8622   93.0070    9.5221 N.ar    1  UNL1       -0.2121
     22 C          66.8452   94.4876    9.7625 C.ar    1  UNL1        0.2203
     23 N          66.0208   95.0567   10.8789 N.ar    1  UNL1       -0.2121
     24 C          65.2134   94.1453   11.7550 C.ar    1  UNL1        0.1035
     25 N          67.6526   95.3989    8.8864 N.pl3   1  UNL1       -0.2747
     26 C          67.7707   96.8552    9.2260 C.3     1  UNL1        0.1151
     27 C          68.3421   94.8540    7.6707 C.3     1  UNL1        0.1151
     28 C          62.7884   86.9110   17.7230 C.3     1  UNL1        0.0286
     29 C          62.9718   88.3996   17.7057 C.3     1  UNL1        0.1324
     30 C          61.0408   89.6815   12.2548 C.3     1  UNL1        0.1557
     31 C          61.0541   88.7091   11.1126 C.ar    1  UNL1        0.0022
     32 C          61.9738   87.5247   11.1467 C.ar    1  UNL1       -0.0016
     33 C          61.9870   86.5524   10.0046 C.ar    1  UNL1        0.0100
     34 C          61.0806   86.7646    8.8284 C.ar    1  UNL1        0.0684
     35 C          60.1610   87.9491    8.7943 C.ar    1  UNL1        0.0100
     36 C          60.1477   88.9213    9.9364 C.ar    1  UNL1       -0.0016
     37 C          61.0939   85.7922    7.6863 C.1     1  UNL1        0.1004
     38 N          61.1072   84.8200    6.5442 N.1     1  UNL1       -0.1908
@<TRIPOS>BOND
     1    28    29    1
     2    29     1    1
     3     1     2   ar
     4     2     3   ar
     5     3     4   ar
     6     4    12    1
     7    12    13   ar
     8    13    14   ar
     9    14    15   ar
    10    15    16    1
    11    15    17   ar
    12    17    18   ar
    13     4     5   ar
    14     5    19    1
    15    19    20   ar
    16    20    21   ar
    17    21    22   ar
    18    22    25    1
    19    25    26    1
    20    25    27    1
    21    22    23   ar
    22    23    24   ar
    23     5     6   ar
    24     6     7    2
    25     6     8   ar
    26     8    30    1
    27    30    31    1
    28    31    32   ar
    29    32    33   ar
    30    33    34   ar
    31    34    37    1
    32    37    38    3
    33    34    35   ar
    34    35    36   ar
    35     8     9   ar
    36     9    10   ar
    37    10    11    2
    38    10     1   ar
    39     9     3   ar
    40    18    12   ar
    41    24    19   ar
    42    36    31   ar
@<TRIPOS>MOLECULE
*****
 38 42 0 0 0
SMALL
GASTEIGER

@<TRIPOS>ATOM
      1 N          63.8267   85.1484   13.0405 N.ar    1  UNL1       -0.1994
      2 N          63.2953   85.1525   11.6378 N.ar    1  UNL1       -0.1460
      3 C          62.6564   86.4864   11.3880 C.ar    1  UNL1        0.1860
      4 C          61.9680   87.0601   10.1852 C.ar    1  UNL1        0.0423
      5 C          61.4161   88.4542   10.2306 C.ar    1  UNL1        0.0635
      6 C          61.5527   89.2745   11.4789 C.ar    1  UNL1        0.2757
      7 O          61.0008   90.6686   11.5244 O.2     1  UNL1       -0.2655
      8 N          62.2412   88.7008   12.6818 N.ar    1  UNL1       -0.2229
      9 N          62.7930   87.3068   12.6364 N.ar    1  UNL1       -0.1765
     10 C          63.5163   86.4798   13.6576 C.ar    1  UNL1        0.3669
     11 O          63.8675   86.9090   15.0514 O.2     1  UNL1       -0.2429
     12 C          61.8314   86.2397    8.9369 C.ar    1  UNL1        0.0032
     13 C          60.4792   86.0267    8.3236 C.ar    1  UNL1        0.0010
     14 C          60.3426   85.2063    7.0753 C.ar    1  UNL1        0.0114
     15 C          61.5582   84.5990    6.4402 C.ar    1  UNL1        0.0577
     16 CL         61.4216   83.7786    5.1919 Cl      1  UNL1       -0.0822
     17 C          62.9105   84.8120    7.0534 C.ar    1  UNL1        0.0114
     18 C          63.0471   85.6324    8.3018 C.ar    1  UNL1        0.0010
     19 C          60.7276   89.0278    9.0278 C.ar    1  UNL1        0.0432
     20 C          61.3744   90.1359    8.2507 C.ar    1  UNL1        0.1035
     21 N          60.6860   90.7095    7.0479 N.ar    1  UNL1       -0.2121
     22 C          59.3506   90.1751    6.6220 C.ar    1  UNL1        0.2203
     23 N          58.7038   89.0670    7.3990 N.ar    1  UNL1       -0.2121
     24 C          59.3924   88.4934    8.6019 C.ar    1  UNL1        0.1035
     25 N          58.6622   90.7487    5.4191 N.pl3   1  UNL1       -0.2747
     26 C          59.4620   91.4444    4.3578 C.3     1  UNL1        0.1151
     27 C          57.1738   90.6268    5.2775 C.3     1  UNL1        0.1151
     28 C          63.9744   83.3950   14.9520 C.3     1  UNL1        0.0286
     29 C          64.5429   84.0123   13.7088 C.3     1  UNL1        0.1324
     30 C          62.3778   89.5212   13.9302 C.3     1  UNL1        0.1557
     31 C          63.6066   90.3529   14.1504 C.ar    1  UNL1        0.0022
     32 C          63.9664   90.8077   15.5337 C.ar    1  UNL1       -0.0016
     33 C          65.1952   91.6393   15.7538 C.ar    1  UNL1        0.0100
     34 C          66.0641   92.0161   14.5906 C.ar    1  UNL1        0.0684
     35 C          65.7043   91.5613   13.2073 C.ar    1  UNL1        0.0100
     36 C          64.4755   90.7296   12.9872 C.ar    1  UNL1       -0.0016
     37 C          67.2929   92.8478   14.8108 C.1     1  UNL1        0.1004
     38 N          68.5217   93.6793   15.0310 N.1     1  UNL1       -0.1908
@<TRIPOS>BOND
     1    28    29    1
     2    29     1    1
     3     1     2   ar
     4     2     3   ar
     5     3     4   ar
     6     4    12    1
     7    12    13   ar
     8    13    14   ar
     9    14    15   ar
    10    15    16    1
    11    15    17   ar
    12    17    18   ar
    13     4     5   ar
    14     5    19    1
    15    19    20   ar
    16    20    21   ar
    17    21    22   ar
    18    22    25    1
    19    25    26    1
    20    25    27    1
    21    22    23   ar
    22    23    24   ar
    23     5     6   ar
    24     6     7    2
    25     6     8   ar
    26     8    30    1
    27    30    31    1
    28    31    32   ar
    29    32    33   ar
    30    33    34   ar
    31    34    37    1
    32    37    38    3
    33    34    35   ar
    34    35    36   ar
    35     8     9   ar
    36     9    10   ar
    37    10    11    2
    38    10     1   ar
    39     9     3   ar
    40    18    12   ar
    41    24    19   ar
    42    36    31   ar
@<TRIPOS>MOLECULE
*****
 38 42 0 0 0
SMALL
GASTEIGER

@<TRIPOS>ATOM
      1 N          63.6105   86.5473   15.8253 N.ar    1  UNL1       -0.1994
      2 N          63.4569   85.4839   14.7785 N.ar    1  UNL1       -0.1460
      3 C          63.1429   86.1578   13.4757 C.ar    1  UNL1        0.1860
      4 C          62.8886   85.6150   12.1007 C.ar    1  UNL1        0.0423
      5 C          62.5938   86.5522   10.9671 C.ar    1  UNL1        0.0635
      6 C          62.5533   88.0320   11.2087 C.ar    1  UNL1        0.2757
      7 O          62.2585   88.9692   10.0752 O.2     1  UNL1       -0.2655
      8 N          62.8076   88.5748   12.5838 N.ar    1  UNL1       -0.2229
      9 N          63.1024   87.6376   13.7173 N.ar    1  UNL1       -0.1765
     10 C          63.3914   87.8783   15.1694 C.ar    1  UNL1        0.3669
     11 O          63.4508   89.2154   15.8466 O.2     1  UNL1       -0.2429
     12 C          62.9291   84.1352   11.8592 C.ar    1  UNL1        0.0032
     13 C          62.1151   83.2126   12.7172 C.ar    1  UNL1        0.0010
     14 C          62.1556   81.7328   12.4757 C.ar    1  UNL1        0.0114
     15 C          63.0101   81.1754   11.3761 C.ar    1  UNL1        0.0577
     16 CL         63.0507   79.6955   11.1346 Cl      1  UNL1       -0.0822
     17 C          63.8242   82.0980   10.5180 C.ar    1  UNL1        0.0114
     18 C          63.7837   83.5778   10.7595 C.ar    1  UNL1        0.0010
     19 C          62.3395   86.0094    9.5921 C.ar    1  UNL1        0.0432
     20 C          60.9498   86.0179    9.0276 C.ar    1  UNL1        0.1035
     21 N          60.6955   85.4751    7.6526 N.ar    1  UNL1       -0.2121
     22 C          61.8310   84.9239    6.8420 C.ar    1  UNL1        0.2203
     23 N          63.2207   84.9155    7.4065 N.ar    1  UNL1       -0.2121
     24 C          63.4749   85.4582    8.7816 C.ar    1  UNL1        0.1035
     25 N          61.5767   84.3812    5.4670 N.pl3   1  UNL1       -0.2747
     26 C          62.3962   84.8634    4.3069 C.3     1  UNL1        0.1151
     27 C          60.5028   83.3561    5.2520 C.3     1  UNL1        0.1151
     28 C          62.8999   86.6236   18.3231 C.3     1  UNL1        0.0286
     29 C          63.9275   86.3196   17.2736 C.3     1  UNL1        0.1324
     30 C          62.7671   90.0546   12.8253 C.3     1  UNL1        0.1557
     31 C          63.8291   90.9391   12.2422 C.ar    1  UNL1        0.0022
     32 C          63.7060   91.4275   10.8294 C.ar    1  UNL1       -0.0016
     33 C          64.7680   92.3118   10.2463 C.ar    1  UNL1        0.0100
     34 C          65.9531   92.7079   11.0762 C.ar    1  UNL1        0.0684
     35 C          66.0762   92.2195   12.4891 C.ar    1  UNL1        0.0100
     36 C          65.0142   91.3351   13.0721 C.ar    1  UNL1       -0.0016
     37 C          67.0152   93.5923   10.4931 C.1     1  UNL1        0.1004
     38 N          68.0771   94.4767    9.9101 N.1     1  UNL1       -0.1908
@<TRIPOS>BOND
     1    28    29    1
     2    29     1    1
     3     1     2   ar
     4     2     3   ar
     5     3     4   ar
     6     4    12    1
     7    12    13   ar
     8    13    14   ar
     9    14    15   ar
    10    15    16    1
    11    15    17   ar
    12    17    18   ar
    13     4     5   ar
    14     5    19    1
    15    19    20   ar
    16    20    21   ar
    17    21    22   ar
    18    22    25    1
    19    25    26    1
    20    25    27    1
    21    22    23   ar
    22    23    24   ar
    23     5     6   ar
    24     6     7    2
    25     6     8   ar
    26     8    30    1
    27    30    31    1
    28    31    32   ar
    29    32    33   ar
    30    33    34   ar
    31    34    37    1
    32    37    38    3
    33    34    35   ar
    34    35    36   ar
    35     8     9   ar
    36     9    10   ar
    37    10    11    2
    38    10     1   ar
    39     9     3   ar
    40    18    12   ar
    41    24    19   ar
    42    36    31   ar
@<TRIPOS>MOLECULE
*****
 38 42 0 0 0
SMALL
GASTEIGER

@<TRIPOS>ATOM
      1 N          61.9312   90.2643    9.8528 N.ar    1  UNL1       -0.1994
      2 N          63.0221   91.2816   10.0113 N.ar    1  UNL1       -0.1460
      3 C          63.6975   91.0357   11.3279 C.ar    1  UNL1        0.1860
      4 C          64.8387   91.7254   12.0147 C.ar    1  UNL1        0.0423
      5 C          65.3066   91.2458   13.3569 C.ar    1  UNL1        0.0635
      6 C          64.6332   90.0765   14.0120 C.ar    1  UNL1        0.2757
      7 O          65.1010   89.5969   15.3540 O.2     1  UNL1       -0.2655
      8 N          63.4919   89.3868   13.3251 N.ar    1  UNL1       -0.2229
      9 N          63.0241   89.8664   11.9830 N.ar    1  UNL1       -0.1765
     10 C          61.9325   89.3897   11.0714 C.ar    1  UNL1        0.3669
     11 O          61.0050   88.2401   11.3325 O.2     1  UNL1       -0.2429
     12 C          65.5121   92.8947   11.3596 C.ar    1  UNL1        0.0032
     13 C          65.3955   94.2626   11.9639 C.ar    1  UNL1        0.0010
     14 C          66.0689   95.4319   11.3088 C.ar    1  UNL1        0.0114
     15 C          66.8589   95.2334   10.0493 C.ar    1  UNL1        0.0577
     16 CL         67.5323   96.4027    9.3941 Cl      1  UNL1       -0.0822
     17 C          66.9756   93.8655    9.4449 C.ar    1  UNL1        0.0114
     18 C          66.3022   92.6961   10.1000 C.ar    1  UNL1        0.0010
     19 C          66.4478   91.9356   14.0437 C.ar    1  UNL1        0.0432
     20 C          67.8355   91.8276   13.4845 C.ar    1  UNL1        0.1035
     21 N          68.9767   92.5173   14.1714 N.ar    1  UNL1       -0.2121
     22 C          68.7303   93.3151   15.4175 C.ar    1  UNL1        0.2203
     23 N          67.3427   93.4231   15.9768 N.ar    1  UNL1       -0.2121
     24 C          66.2014   92.7333   15.2898 C.ar    1  UNL1        0.1035
     25 N          69.8715   94.0048   16.1044 N.pl3   1  UNL1       -0.2747
     26 C          70.6987   93.2634   17.1125 C.3     1  UNL1        0.1151
     27 C          70.1857   95.4360   15.7833 C.3     1  UNL1        0.1151
     28 C          60.1532   88.9169    8.5213 C.3     1  UNL1        0.0286
     29 C          61.0022   90.1430    8.6814 C.3     1  UNL1        0.1324
     30 C          62.8185   88.2175   13.9802 C.3     1  UNL1        0.1557
     31 C          63.2364   86.8196   13.6319 C.ar    1  UNL1        0.0022
     32 C          62.6720   86.1494   12.4144 C.ar    1  UNL1       -0.0016
     33 C          63.0900   84.7515   12.0662 C.ar    1  UNL1        0.0100
     34 C          64.0723   84.0239   12.9354 C.ar    1  UNL1        0.0684
     35 C          64.6367   84.6940   14.1529 C.ar    1  UNL1        0.0100
     36 C          64.2188   86.0919   14.5011 C.ar    1  UNL1       -0.0016
     37 C          64.4902   82.6259   12.5871 C.1     1  UNL1        0.1004
     38 N          64.9081   81.2281   12.2388 N.1     1  UNL1       -0.1908
@<TRIPOS>BOND
     1    28    29    1
     2    29     1    1
     3     1     2   ar
     4     2     3   ar
     5     3     4   ar
     6     4    12    1
     7    12    13   ar
     8    13    14   ar
     9    14    15   ar
    10    15    16    1
    11    15    17   ar
    12    17    18   ar
    13     4     5   ar
    14     5    19    1
    15    19    20   ar
    16    20    21   ar
    17    21    22   ar
    18    22    25    1
    19    25    26    1
    20    25    27    1
    21    22    23   ar
    22    23    24   ar
    23     5     6   ar
    24     6     7    2
    25     6     8   ar
    26     8    30    1
    27    30    31    1
    28    31    32   ar
    29    32    33   ar
    30    33    34   ar
    31    34    37    1
    32    37    38    3
    33    34    35   ar
    34    35    36   ar
    35     8     9   ar
    36     9    10   ar
    37    10    11    2
    38    10     1   ar
    39     9     3   ar
    40    18    12   ar
    41    24    19   ar
    42    36    31   ar
@<TRIPOS>MOLECULE
*****
 38 42 0 0 0
SMALL
GASTEIGER

@<TRIPOS>ATOM
      1 N          63.8650   87.1162   15.6223 N.ar    1  UNL1       -0.1994
      2 N          64.6572   88.3882   15.5549 N.ar    1  UNL1       -0.1460
      3 C          64.4346   89.0020   14.2044 C.ar    1  UNL1        0.1860
      4 C          64.9584   90.2583   13.5743 C.ar    1  UNL1        0.0423
      5 C          64.5523   90.6221   12.1768 C.ar    1  UNL1        0.0635
      6 C          63.6225   89.7295   11.4095 C.ar    1  UNL1        0.2757
      7 O          63.2165   90.0932   10.0121 O.2     1  UNL1       -0.2655
      8 N          63.0987   88.4731   12.0398 N.ar    1  UNL1       -0.2229
      9 N          63.5047   88.1093   13.4372 N.ar    1  UNL1       -0.1765
     10 C          63.1528   86.9439   14.3135 C.ar    1  UNL1        0.3669
     11 O          62.2474   85.8059   13.9455 O.2     1  UNL1       -0.2429
     12 C          65.8882   91.1509   14.3415 C.ar    1  UNL1        0.0032
     13 C          65.3896   91.8981   15.5428 C.ar    1  UNL1        0.0010
     14 C          66.3194   92.7907   16.3100 C.ar    1  UNL1        0.0114
     15 C          67.7478   92.9362   15.8760 C.ar    1  UNL1        0.0577
     16 CL         68.6776   93.8288   16.6432 Cl      1  UNL1       -0.0822
     17 C          68.2465   92.1890   14.6746 C.ar    1  UNL1        0.0114
     18 C          67.3167   91.2964   13.9074 C.ar    1  UNL1        0.0010
     19 C          65.0761   91.8785   11.5466 C.ar    1  UNL1        0.0432
     20 C          64.9899   93.1807   12.2860 C.ar    1  UNL1        0.1035
     21 N          65.5137   94.4371   11.6558 N.ar    1  UNL1       -0.2121
     22 C          66.1238   94.3912   10.2862 C.ar    1  UNL1        0.2203
     23 N          66.2100   93.0890    9.5468 N.ar    1  UNL1       -0.2121
     24 C          65.6862   91.8326   10.1771 C.ar    1  UNL1        0.1035
     25 N          66.6476   95.6476    9.6560 N.pl3   1  UNL1       -0.2747
     26 C          66.9223   96.8539   10.5042 C.3     1  UNL1        0.1151
     27 C          66.8967   95.6977    8.1777 C.3     1  UNL1        0.1151
     28 C          62.7196   86.3460   17.8233 C.3     1  UNL1        0.0286
     29 C          63.7970   86.1808   16.7929 C.3     1  UNL1        0.1324
     30 C          62.1689   87.5805   11.2725 C.3     1  UNL1        0.1557
     31 C          61.3667   88.1353   10.1329 C.ar    1  UNL1        0.0022
     32 C          61.2662   87.3728    8.8451 C.ar    1  UNL1       -0.0016
     33 C          60.4640   87.9276    7.7056 C.ar    1  UNL1        0.0100
     34 C          59.7623   89.2451    7.8539 C.ar    1  UNL1        0.0684
     35 C          59.8628   90.0076    9.1416 C.ar    1  UNL1        0.0100
     36 C          60.6650   89.4528   10.2811 C.ar    1  UNL1       -0.0016
     37 C          58.9601   89.7999    6.7142 C.1     1  UNL1        0.1004
     38 N          58.1579   90.3547    5.5747 N.1     1  UNL1       -0.1908
@<TRIPOS>BOND
     1    28    29    1
     2    29     1    1
     3     1     2   ar
     4     2     3   ar
     5     3     4   ar
     6     4    12    1
     7    12    13   ar
     8    13    14   ar
     9    14    15   ar
    10    15    16    1
    11    15    17   ar
    12    17    18   ar
    13     4     5   ar
    14     5    19    1
    15    19    20   ar
    16    20    21   ar
    17    21    22   ar
    18    22    25    1
    19    25    26    1
    20    25    27    1
    21    22    23   ar
    22    23    24   ar
    23     5     6   ar
    24     6     7    2
    25     6     8   ar
    26     8    30    1
    27    30    31    1
    28    31    32   ar
    29    32    33   ar
    30    33    34   ar
    31    34    37    1
    32    37    38    3
    33    34    35   ar
    34    35    36   ar
    35     8     9   ar
    36     9    10   ar
    37    10    11    2
    38    10     1   ar
    39     9     3   ar
    40    18    12   ar
    41    24    19   ar
    42    36    31   ar
