@<TRIPOS>MOLECULE
*****
 43 46 0 0 0
SMALL
GASTEIGER

@<TRIPOS>ATOM
      1 N          64.3821   91.0921   12.8130 N.pl3   1  UNL1       -0.3043
      2 C          63.4578   91.7813   11.8535 C.3     1  UNL1        0.1123
      3 C          62.5378   90.9734   10.9870 C.3     1  UNL1        0.1149
      4 N          62.5421   89.4762   11.0800 N.am    1  UNL1       -0.2747
      5 C          61.6221   88.6683   10.2135 C.2     1  UNL1        0.2442
      6 O          60.6977   89.3575    9.2540 O.2     1  UNL1       -0.2731
      7 C          63.4664   88.7870   12.0395 C.3     1  UNL1        0.1149
      8 C          64.3865   89.5950   12.9060 C.3     1  UNL1        0.1123
      9 C          66.1235   93.0019   13.0784 C.ar    1  UNL1        0.0076
     10 C          67.0435   93.8098   13.9449 C.ar    1  UNL1        0.0279
     11 C          67.1421   93.5159   15.4126 C.ar    1  UNL1        0.1400
     12 F          68.0621   94.3239   16.2791 F       1  UNL1       -0.2042
     13 C          66.3208   92.4141   16.0137 C.ar    1  UNL1        0.0309
     14 C          65.4008   91.6062   15.1471 C.ar    1  UNL1        0.0165
     15 C          65.3022   91.9001   13.6795 C.ar    1  UNL1        0.0453
     16 C          66.0249   93.2958   11.6108 C.3     1  UNL1        0.0781
     17 N          65.3996   94.5763   11.1427 N.3     1  UNL1       -0.2939
     18 H          64.7523   94.8722   11.8733 H       1  UNL1        0.1235
     19 C          66.2638   95.7603   10.8243 C.3     1  UNL1        0.0858
     20 C          67.1136   95.7578    9.5881 C.3     1  UNL1        0.0825
     21 N          66.5538   95.2456    8.2942 N.3     1  UNL1       -0.3200
     22 H          66.3684   94.2459    8.3760 H       1  UNL1        0.1189
     23 H          67.2271   95.4064    7.5451 H       1  UNL1        0.1189
     24 C          66.5515   92.3091   10.6113 C.3     1  UNL1        0.0203
     25 C          68.7899   91.5218   11.6696 C.3     1  UNL1        0.0001
     26 C          68.0281   92.0702   10.4995 C.3     1  UNL1        0.0017
     27 C          68.7430   92.3798    9.2177 C.3     1  UNL1        0.0001
     28 C          61.6264   87.1712   10.3065 C.3     1  UNL1        0.1564
     29 N          61.7063   86.3425    9.0588 N.am    1  UNL1       -0.2727
     30 C          62.9297   85.6481    8.5383 C.3     1  UNL1        0.0943
     31 C          62.5563   84.9391    7.2703 C.3     1  UNL1        0.0311
     32 C          61.1019   85.1953    7.0071 C.3     1  UNL1        0.0870
     33 C          60.5765   86.0626    8.1124 C.2     1  UNL1        0.2260
     34 O          59.1688   86.5623    8.2477 O.2     1  UNL1       -0.2749
     35 C          61.5510   86.5028   11.6473 C.3     1  UNL1        0.0564
     36 C          62.3382   85.2528   11.9075 C.ar    1  UNL1       -0.0094
     37 C          62.1021   84.0301   11.0711 C.ar    1  UNL1       -0.0025
     38 C          62.8893   82.7800   11.3313 C.ar    1  UNL1        0.0111
     39 C          63.9126   82.7527   12.4278 C.ar    1  UNL1        0.0585
     40 CL         64.6998   81.5026   12.6880 Cl      1  UNL1       -0.0822
     41 C          64.1486   83.9753   13.2641 C.ar    1  UNL1        0.0225
     42 C          63.3614   85.2254   13.0039 C.ar    1  UNL1        0.0546
     43 CL         63.5974   86.4480   13.8402 Cl      1  UNL1       -0.0825
@<TRIPOS>BOND
     1    25    26    1
     2    26    27    1
     3    26    24    1
     4    16    24    1
     5    16    17    1
     6    17    19    1
     7    19    20    1
     8    20    21    1
     9    16     9    1
    10     9    10   ar
    11    10    11   ar
    12    11    12    1
    13    11    13   ar
    14    13    14   ar
    15    14    15   ar
    16    15     1    1
    17     1     2    1
    18     2     3    1
    19     3     4    1
    20     4     5   am
    21     5     6    2
    22     5    28    1
    23    28    35    1
    24    35    36    1
    25    36    37   ar
    26    37    38   ar
    27    38    39   ar
    28    39    40    1
    29    39    41   ar
    30    41    42   ar
    31    42    43    1
    32    28    29    1
    33    29    30    1
    34    30    31    1
    35    31    32    1
    36    32    33    1
    37    33    34    2
    38     4     7    1
    39     7     8    1
    40    15     9   ar
    41     8     1    1
    42    42    36   ar
    43    33    29   am
    44    17    18    1
    45    21    22    1
    46    21    23    1
@<TRIPOS>MOLECULE
*****
 43 46 0 0 0
SMALL
GASTEIGER

@<TRIPOS>ATOM
      1 N          61.9032   89.2932   10.7799 N.pl3   1  UNL1       -0.3043
      2 C          61.4600   89.5665   12.1867 C.3     1  UNL1        0.1123
      3 C          62.3708   90.2917   13.1324 C.3     1  UNL1        0.1149
      4 N          63.7249   90.7435   12.6715 N.am    1  UNL1       -0.2747
      5 C          64.6357   91.4686   13.6172 C.2     1  UNL1        0.2442
      6 O          64.1926   91.7420   15.0240 O.2     1  UNL1       -0.2731
      7 C          64.1681   90.4701   11.2648 C.3     1  UNL1        0.1149
      8 C          63.2572   89.7449   10.3190 C.3     1  UNL1        0.1123
      9 C          61.0354   87.0710    9.7509 C.ar    1  UNL1        0.0076
     10 C          60.1245   86.3459    8.8052 C.ar    1  UNL1        0.0279
     11 C          59.1705   87.1178    7.9427 C.ar    1  UNL1        0.1400
     12 F          58.2596   86.3926    6.9969 F       1  UNL1       -0.2042
     13 C          59.1274   88.6148    8.0259 C.ar    1  UNL1        0.0309
     14 C          60.0382   89.3399    8.9716 C.ar    1  UNL1        0.0165
     15 C          60.9923   88.5680    9.8341 C.ar    1  UNL1        0.0453
     16 C          61.9894   86.2990   10.6135 C.3     1  UNL1        0.0781
     17 N          61.6270   85.9809   12.0338 N.3     1  UNL1       -0.2939
     18 H          60.6389   85.7279   12.0360 H       1  UNL1        0.1235
     19 C          62.3541   84.8934   12.7678 C.3     1  UNL1        0.0858
     20 C          63.5538   85.2258   13.6047 C.3     1  UNL1        0.0825
     21 N          63.8405   86.6517   13.9716 N.3     1  UNL1       -0.3200
     22 H          64.0681   87.1803   13.1294 H       1  UNL1        0.1189
     23 H          64.6294   86.6847   14.6173 H       1  UNL1        0.1189
     24 C          63.3057   85.8452   10.0557 C.3     1  UNL1        0.0203
     25 C          63.8101   83.3083    9.8110 C.3     1  UNL1        0.0001
     26 C          63.3750   84.6105    9.2067 C.3     1  UNL1        0.0017
     27 C          63.0091   84.6780    7.7536 C.3     1  UNL1        0.0001
     28 C          65.9897   91.9204   13.1563 C.3     1  UNL1        0.1564
     29 N          66.9796   92.4557   14.1480 N.am    1  UNL1       -0.2727
     30 C          66.6511   93.2082   15.4034 C.3     1  UNL1        0.0943
     31 C          67.9403   93.5500   16.0898 C.3     1  UNL1        0.0311
     32 C          69.0656   93.0088   15.2586 C.3     1  UNL1        0.0870
     33 C          68.4720   92.3325   14.0586 C.2     1  UNL1        0.2260
     34 O          69.2363   91.6524   12.9617 O.2     1  UNL1       -0.2749
     35 C          66.3539   91.8369   11.7035 C.3     1  UNL1        0.0564
     36 C          66.5907   93.0916   10.9164 C.ar    1  UNL1       -0.0094
     37 C          65.8430   94.3455   11.2610 C.ar    1  UNL1       -0.0025
     38 C          66.0797   95.6003   10.4738 C.ar    1  UNL1        0.0111
     39 C          67.0642   95.6011    9.3421 C.ar    1  UNL1        0.0585
     40 CL         67.3010   96.8558    8.5549 Cl      1  UNL1       -0.0822
     41 C          67.8119   94.3472    8.9975 C.ar    1  UNL1        0.0225
     42 C          67.5751   93.0925    9.7846 C.ar    1  UNL1        0.0546
     43 CL         68.3228   91.8386    9.4401 Cl      1  UNL1       -0.0825
@<TRIPOS>BOND
     1    25    26    1
     2    26    27    1
     3    26    24    1
     4    16    24    1
     5    16    17    1
     6    17    19    1
     7    19    20    1
     8    20    21    1
     9    16     9    1
    10     9    10   ar
    11    10    11   ar
    12    11    12    1
    13    11    13   ar
    14    13    14   ar
    15    14    15   ar
    16    15     1    1
    17     1     2    1
    18     2     3    1
    19     3     4    1
    20     4     5   am
    21     5     6    2
    22     5    28    1
    23    28    35    1
    24    35    36    1
    25    36    37   ar
    26    37    38   ar
    27    38    39   ar
    28    39    40    1
    29    39    41   ar
    30    41    42   ar
    31    42    43    1
    32    28    29    1
    33    29    30    1
    34    30    31    1
    35    31    32    1
    36    32    33    1
    37    33    34    2
    38     4     7    1
    39     7     8    1
    40    15     9   ar
    41     8     1    1
    42    42    36   ar
    43    33    29   am
    44    17    18    1
    45    21    22    1
    46    21    23    1
@<TRIPOS>MOLECULE
*****
 43 46 0 0 0
SMALL
GASTEIGER

@<TRIPOS>ATOM
      1 N          61.5876   86.3062    9.5237 N.pl3   1  UNL1       -0.3043
      2 C          62.7322   85.6307    8.8283 C.3     1  UNL1        0.1123
      3 C          63.5662   84.6230    9.5624 C.3     1  UNL1        0.1149
      4 N          63.2557   84.2908   10.9918 N.am    1  UNL1       -0.2747
      5 C          64.0898   83.2831   11.7259 C.2     1  UNL1        0.2442
      6 O          65.2344   82.6076   11.0305 O.2     1  UNL1       -0.2731
      7 C          62.1111   84.9664   11.6872 C.3     1  UNL1        0.1149
      8 C          61.2770   85.9741   10.9531 C.3     1  UNL1        0.1123
      9 C          60.6932   88.7326    9.2730 C.ar    1  UNL1        0.0076
     10 C          59.8591   89.7403    8.5389 C.ar    1  UNL1        0.0279
     11 C          59.0854   89.3293    7.3213 C.ar    1  UNL1        0.1400
     12 F          58.2513   90.3370    6.5872 F       1  UNL1       -0.2042
     13 C          59.1457   87.9106    6.8379 C.ar    1  UNL1        0.0309
     14 C          59.9797   86.9030    7.5720 C.ar    1  UNL1        0.0165
     15 C          60.7535   87.3140    8.7896 C.ar    1  UNL1        0.0453
     16 C          61.4669   89.1436   10.4905 C.3     1  UNL1        0.0781
     17 N          60.8030   89.1463   11.8355 N.3     1  UNL1       -0.2939
     18 H          61.2937   89.8360   12.4047 H       1  UNL1        0.1235
     19 C          59.3392   89.4538   11.9488 C.3     1  UNL1        0.0858
     20 C          58.5628   88.9771   13.1405 C.3     1  UNL1        0.0825
     21 N          57.1179   88.6021   12.9931 N.3     1  UNL1       -0.3200
     22 H          56.5739   89.4316   12.7555 H       1  UNL1        0.1189
     23 H          56.7766   88.2117   13.8714 H       1  UNL1        0.1189
     24 C          62.9046   89.5520   10.3630 C.3     1  UNL1        0.0203
     25 C          63.4847   90.5784   12.6782 C.3     1  UNL1        0.0001
     26 C          63.4367   90.6897   11.1830 C.3     1  UNL1        0.0017
     27 C          63.9207   91.9387   10.5080 C.3     1  UNL1        0.0001
     28 C          63.7792   82.9510   13.1553 C.3     1  UNL1        0.1564
     29 N          62.6542   82.0135   13.4801 N.am    1  UNL1       -0.2727
     30 C          61.5967   82.2324   14.5211 C.3     1  UNL1        0.0943
     31 C          60.6782   81.0467   14.5053 C.3     1  UNL1        0.0311
     32 C          61.1680   80.0949   13.4545 C.3     1  UNL1        0.0870
     33 C          62.3893   80.6924   12.8208 C.2     1  UNL1        0.2260
     34 O          63.2027   80.0769   11.7211 O.2     1  UNL1       -0.2749
     35 C          64.5937   83.5564   14.2600 C.3     1  UNL1        0.0564
     36 C          64.2453   84.9156   14.7903 C.ar    1  UNL1       -0.0094
     37 C          64.7560   86.1444   14.0978 C.ar    1  UNL1       -0.0025
     38 C          64.4076   87.5035   14.6281 C.ar    1  UNL1        0.0111
     39 C          63.5487   87.6340   15.8510 C.ar    1  UNL1        0.0585
     40 CL         63.2003   88.9932   16.3813 Cl      1  UNL1       -0.0822
     41 C          63.0381   86.4053   16.5434 C.ar    1  UNL1        0.0225
     42 C          63.3864   85.0461   16.0130 C.ar    1  UNL1        0.0546
     43 CL         62.8758   83.8173   16.7055 Cl      1  UNL1       -0.0825
@<TRIPOS>BOND
     1    25    26    1
     2    26    27    1
     3    26    24    1
     4    16    24    1
     5    16    17    1
     6    17    19    1
     7    19    20    1
     8    20    21    1
     9    16     9    1
    10     9    10   ar
    11    10    11   ar
    12    11    12    1
    13    11    13   ar
    14    13    14   ar
    15    14    15   ar
    16    15     1    1
    17     1     2    1
    18     2     3    1
    19     3     4    1
    20     4     5   am
    21     5     6    2
    22     5    28    1
    23    28    35    1
    24    35    36    1
    25    36    37   ar
    26    37    38   ar
    27    38    39   ar
    28    39    40    1
    29    39    41   ar
    30    41    42   ar
    31    42    43    1
    32    28    29    1
    33    29    30    1
    34    30    31    1
    35    31    32    1
    36    32    33    1
    37    33    34    2
    38     4     7    1
    39     7     8    1
    40    15     9   ar
    41     8     1    1
    42    42    36   ar
    43    33    29   am
    44    17    18    1
    45    21    22    1
    46    21    23    1
@<TRIPOS>MOLECULE
*****
 43 46 0 0 0
SMALL
GASTEIGER

@<TRIPOS>ATOM
      1 N          61.5831   86.2813    9.4631 N.pl3   1  UNL1       -0.3043
      2 C          62.7545   85.6247    8.7948 C.3     1  UNL1        0.1123
      3 C          63.6011   84.6476    9.5554 C.3     1  UNL1        0.1149
      4 N          63.2763   84.3270   10.9844 N.am    1  UNL1       -0.2747
      5 C          64.1228   83.3499   11.7449 C.2     1  UNL1        0.2442
      6 O          65.2943   82.6933   11.0766 O.2     1  UNL1       -0.2731
      7 C          62.1048   84.9836   11.6526 C.3     1  UNL1        0.1149
      8 C          61.2582   85.9608   10.8920 C.3     1  UNL1        0.1123
      9 C          60.6934   88.6982    9.1209 C.ar    1  UNL1        0.0076
     10 C          59.8469   89.6753    8.3603 C.ar    1  UNL1        0.0279
     11 C          59.0433   89.2126    7.1812 C.ar    1  UNL1        0.1400
     12 F          58.1967   90.1897    6.4205 F       1  UNL1       -0.2042
     13 C          59.0864   87.7728    6.7627 C.ar    1  UNL1        0.0309
     14 C          59.9330   86.7957    7.5234 C.ar    1  UNL1        0.0165
     15 C          60.7365   87.2585    8.7025 C.ar    1  UNL1        0.0453
     16 C          61.4970   89.1609   10.3000 C.3     1  UNL1        0.0781
     17 N          62.8621   89.7473   10.0937 N.3     1  UNL1       -0.2939
     18 H          63.0195   89.7797    9.0865 H       1  UNL1        0.1235
     19 C          63.1799   91.1132   10.6259 C.3     1  UNL1        0.0858
     20 C          63.9820   91.2596   11.8851 C.3     1  UNL1        0.0825
     21 N          63.2905   91.2864   13.2159 N.3     1  UNL1       -0.3200
     22 H          62.7137   92.1250   13.2825 H       1  UNL1        0.1189
     23 H          63.9872   91.2929   13.9609 H       1  UNL1        0.1189
     24 C          60.9353   89.0373   11.6854 C.3     1  UNL1        0.0203
     25 C          58.6072   88.8659   12.8257 C.3     1  UNL1        0.0001
     26 C          59.6003   89.6394   12.0100 C.3     1  UNL1        0.0017
     27 C          59.2585   91.0148   11.5188 C.3     1  UNL1        0.0001
     28 C          63.7980   83.0294   13.1738 C.3     1  UNL1        0.1564
     29 N          62.6713   82.0927   13.4948 N.am    1  UNL1       -0.2727
     30 C          61.6232   82.3021   14.5473 C.3     1  UNL1        0.0943
     31 C          60.6990   81.1209   14.5227 C.3     1  UNL1        0.0311
     32 C          61.1759   80.1814   13.4551 C.3     1  UNL1        0.0870
     33 C          62.3949   80.7819   12.8198 C.2     1  UNL1        0.2260
     34 O          63.1966   80.1779   11.7053 O.2     1  UNL1       -0.2749
     35 C          64.5998   83.6457   14.2817 C.3     1  UNL1        0.0564
     36 C          64.2355   85.0031   14.8057 C.ar    1  UNL1       -0.0094
     37 C          64.7150   86.2346   14.0959 C.ar    1  UNL1       -0.0025
     38 C          64.3508   87.5920   14.6199 C.ar    1  UNL1        0.0111
     39 C          63.5070   87.7181   15.8537 C.ar    1  UNL1        0.0585
     40 CL         63.1427   89.0755   16.3777 Cl      1  UNL1       -0.0822
     41 C          63.0275   86.4867   16.5635 C.ar    1  UNL1        0.0225
     42 C          63.3918   85.1292   16.0394 C.ar    1  UNL1        0.0546
     43 CL         62.9124   83.8978   16.7492 Cl      1  UNL1       -0.0825
@<TRIPOS>BOND
     1    25    26    1
     2    26    27    1
     3    26    24    1
     4    16    24    1
     5    16    17    1
     6    17    19    1
     7    19    20    1
     8    20    21    1
     9    16     9    1
    10     9    10   ar
    11    10    11   ar
    12    11    12    1
    13    11    13   ar
    14    13    14   ar
    15    14    15   ar
    16    15     1    1
    17     1     2    1
    18     2     3    1
    19     3     4    1
    20     4     5   am
    21     5     6    2
    22     5    28    1
    23    28    35    1
    24    35    36    1
    25    36    37   ar
    26    37    38   ar
    27    38    39   ar
    28    39    40    1
    29    39    41   ar
    30    41    42   ar
    31    42    43    1
    32    28    29    1
    33    29    30    1
    34    30    31    1
    35    31    32    1
    36    32    33    1
    37    33    34    2
    38     4     7    1
    39     7     8    1
    40    15     9   ar
    41     8     1    1
    42    42    36   ar
    43    33    29   am
    44    17    18    1
    45    21    22    1
    46    21    23    1
@<TRIPOS>MOLECULE
*****
 43 46 0 0 0
SMALL
GASTEIGER

@<TRIPOS>ATOM
      1 N          63.4166   85.5410   13.9460 N.pl3   1  UNL1       -0.3043
      2 C          63.0187   85.8039   15.3681 C.3     1  UNL1        0.1123
      3 C          63.1877   87.1748   15.9529 C.3     1  UNL1        0.1149
      4 N          63.7545   88.2828   15.1156 N.am    1  UNL1       -0.2747
      5 C          63.9234   89.6537   15.7004 C.2     1  UNL1        0.2442
      6 O          63.5256   89.9167   17.1226 O.2     1  UNL1       -0.2731
      7 C          64.1523   88.0199   13.6934 C.3     1  UNL1        0.1149
      8 C          63.9834   86.6489   13.1086 C.3     1  UNL1        0.1123
      9 C          62.6794   84.0075   11.9825 C.ar    1  UNL1        0.0076
     10 C          62.5104   82.6365   11.3978 C.ar    1  UNL1        0.0279
     11 C          62.9097   81.4281   12.1917 C.ar    1  UNL1        0.1400
     12 F          62.7407   80.0571   11.6069 F       1  UNL1       -0.2042
     13 C          63.4780   81.5906   13.5703 C.ar    1  UNL1        0.0309
     14 C          63.6469   82.9615   14.1550 C.ar    1  UNL1        0.0165
     15 C          63.2476   84.1700   13.3611 C.ar    1  UNL1        0.0453
     16 C          62.2801   85.2159   11.1886 C.3     1  UNL1        0.0781
     17 N          61.2147   86.1356   11.7073 N.3     1  UNL1       -0.2939
     18 H          61.2677   86.1030   12.7254 H       1  UNL1        0.1235
     19 C          61.2208   87.5846   11.3196 C.3     1  UNL1        0.0858
     20 C          59.9335   88.3531   11.2700 C.3     1  UNL1        0.0825
     21 N          59.1068   88.5123   12.5114 N.3     1  UNL1       -0.3200
     22 H          58.7508   87.6016   12.8019 H       1  UNL1        0.1189
     23 H          58.3243   89.1382   12.3209 H       1  UNL1        0.1189
     24 C          62.9461   85.5046    9.8761 C.3     1  UNL1        0.0203
     25 C          60.7634   85.9531    8.5402 C.3     1  UNL1        0.0001
     26 C          62.1616   85.4134    8.6008 C.3     1  UNL1        0.0017
     27 C          62.7754   84.7824    7.3863 C.3     1  UNL1        0.0001
     28 C          64.4902   90.7617   14.8630 C.3     1  UNL1        0.1564
     29 N          65.7652   91.4361   15.2748 N.am    1  UNL1       -0.2727
     30 C          67.1223   91.1921   14.6843 C.3     1  UNL1        0.0943
     31 C          68.1028   92.0781   15.3939 C.3     1  UNL1        0.0311
     32 C          67.3517   92.8697   16.4231 C.3     1  UNL1        0.0870
     33 C          65.9069   92.4729   16.3496 C.2     1  UNL1        0.2260
     34 O          64.7987   93.0173   17.2011 O.2     1  UNL1       -0.2749
     35 C          63.7820   91.1952   13.6138 C.3     1  UNL1        0.0564
     36 C          64.5309   91.9358   12.5457 C.ar    1  UNL1       -0.0094
     37 C          65.5337   92.9855   12.9234 C.ar    1  UNL1       -0.0025
     38 C          66.2825   93.7261   11.8553 C.ar    1  UNL1        0.0111
     39 C          66.0286   93.4170   10.4096 C.ar    1  UNL1        0.0585
     40 CL         66.7774   94.1575    9.3416 Cl      1  UNL1       -0.0822
     41 C          65.0258   92.3673   10.0320 C.ar    1  UNL1        0.0225
     42 C          64.2770   91.6267   11.1001 C.ar    1  UNL1        0.0546
     43 CL         63.2742   90.5770   10.7225 Cl      1  UNL1       -0.0825
@<TRIPOS>BOND
     1    25    26    1
     2    26    27    1
     3    26    24    1
     4    16    24    1
     5    16    17    1
     6    17    19    1
     7    19    20    1
     8    20    21    1
     9    16     9    1
    10     9    10   ar
    11    10    11   ar
    12    11    12    1
    13    11    13   ar
    14    13    14   ar
    15    14    15   ar
    16    15     1    1
    17     1     2    1
    18     2     3    1
    19     3     4    1
    20     4     5   am
    21     5     6    2
    22     5    28    1
    23    28    35    1
    24    35    36    1
    25    36    37   ar
    26    37    38   ar
    27    38    39   ar
    28    39    40    1
    29    39    41   ar
    30    41    42   ar
    31    42    43    1
    32    28    29    1
    33    29    30    1
    34    30    31    1
    35    31    32    1
    36    32    33    1
    37    33    34    2
    38     4     7    1
    39     7     8    1
    40    15     9   ar
    41     8     1    1
    42    42    36   ar
    43    33    29   am
    44    17    18    1
    45    21    22    1
    46    21    23    1
@<TRIPOS>MOLECULE
*****
 43 46 0 0 0
SMALL
GASTEIGER

@<TRIPOS>ATOM
      1 N          64.3238   91.1255   13.3120 N.pl3   1  UNL1       -0.3043
      2 C          63.0306   90.8332   14.0137 C.3     1  UNL1        0.1123
      3 C          61.9757   90.0137   13.3314 C.3     1  UNL1        0.1149
      4 N          62.2139   89.4865   11.9474 N.am    1  UNL1       -0.2747
      5 C          61.1590   88.6671   11.2651 C.2     1  UNL1        0.2442
      6 O          59.8658   88.3747   11.9668 O.2     1  UNL1       -0.2731
      7 C          63.5070   89.7789   11.2457 C.3     1  UNL1        0.1149
      8 C          64.5620   90.5984   11.9281 C.3     1  UNL1        0.1123
      9 C          66.2510   92.8637   13.1912 C.ar    1  UNL1        0.0076
     10 C          67.3059   93.6831   13.8736 C.ar    1  UNL1        0.0279
     11 C          67.4885   93.5839   15.3591 C.ar    1  UNL1        0.1400
     12 F          68.5435   94.4034   16.0415 F       1  UNL1       -0.2042
     13 C          66.6162   92.6652   16.1623 C.ar    1  UNL1        0.0309
     14 C          65.5614   91.8458   15.4799 C.ar    1  UNL1        0.0165
     15 C          65.3787   91.9450   13.9944 C.ar    1  UNL1        0.0453
     16 C          66.0684   92.9629   11.7057 C.3     1  UNL1        0.0781
     17 N          66.7012   91.9460   10.8027 N.3     1  UNL1       -0.2939
     18 H          66.1273   91.9023    9.9606 H       1  UNL1        0.1235
     19 C          68.1203   92.1243   10.3506 C.3     1  UNL1        0.0858
     20 C          68.4091   92.6808    8.9879 C.3     1  UNL1        0.0825
     21 N          69.1534   91.8535    7.9822 N.3     1  UNL1       -0.3200
     22 H          70.1072   91.6981    8.3088 H       1  UNL1        0.1189
     23 H          69.1758   92.3440    7.0881 H       1  UNL1        0.1189
     24 C          65.2530   94.0790   11.1232 C.3     1  UNL1        0.0203
     25 C          66.0630   96.4825   11.6863 C.3     1  UNL1        0.0001
     26 C          65.9197   95.3563   10.7059 C.3     1  UNL1        0.0017
     27 C          66.4430   95.5073    9.3083 C.3     1  UNL1        0.0001
     28 C          61.3972   88.1400    9.8812 C.3     1  UNL1        0.1564
     29 N          60.4294   88.4587    8.7803 N.am    1  UNL1       -0.2727
     30 C          60.0366   89.8317    8.3217 C.3     1  UNL1        0.0943
     31 C          59.0489   89.6819    7.2028 C.3     1  UNL1        0.0311
     32 C          58.8313   88.2162    6.9698 C.3     1  UNL1        0.0870
     33 C          59.6844   87.4601    7.9448 C.2     1  UNL1        0.2260
     34 O          59.7765   85.9677    8.0634 O.2     1  UNL1       -0.2749
     35 C          62.6032   87.2941    9.5980 C.3     1  UNL1        0.0564
     36 C          62.7331   85.9387   10.2271 C.ar    1  UNL1       -0.0094
     37 C          62.5804   85.7829   11.7112 C.ar    1  UNL1       -0.0025
     38 C          62.7103   84.4274   12.3403 C.ar    1  UNL1        0.0111
     39 C          62.9928   83.2277   11.4853 C.ar    1  UNL1        0.0585
     40 CL         63.1227   81.8722   12.1144 Cl      1  UNL1       -0.0822
     41 C          63.1454   83.3835   10.0013 C.ar    1  UNL1        0.0225
     42 C          63.0156   84.7390    9.3722 C.ar    1  UNL1        0.0546
     43 CL         63.1682   84.8948    7.8881 Cl      1  UNL1       -0.0825
@<TRIPOS>BOND
     1    25    26    1
     2    26    27    1
     3    26    24    1
     4    16    24    1
     5    16    17    1
     6    17    19    1
     7    19    20    1
     8    20    21    1
     9    16     9    1
    10     9    10   ar
    11    10    11   ar
    12    11    12    1
    13    11    13   ar
    14    13    14   ar
    15    14    15   ar
    16    15     1    1
    17     1     2    1
    18     2     3    1
    19     3     4    1
    20     4     5   am
    21     5     6    2
    22     5    28    1
    23    28    35    1
    24    35    36    1
    25    36    37   ar
    26    37    38   ar
    27    38    39   ar
    28    39    40    1
    29    39    41   ar
    30    41    42   ar
    31    42    43    1
    32    28    29    1
    33    29    30    1
    34    30    31    1
    35    31    32    1
    36    32    33    1
    37    33    34    2
    38     4     7    1
    39     7     8    1
    40    15     9   ar
    41     8     1    1
    42    42    36   ar
    43    33    29   am
    44    17    18    1
    45    21    22    1
    46    21    23    1
@<TRIPOS>MOLECULE
*****
 43 46 0 0 0
SMALL
GASTEIGER

@<TRIPOS>ATOM
      1 N          61.7695   89.1271   10.7374 N.pl3   1  UNL1       -0.3043
      2 C          61.4065   89.0054   12.1877 C.3     1  UNL1        0.1123
      3 C          62.1823   89.7668   13.2214 C.3     1  UNL1        0.1149
      4 N          63.3211   90.6498   12.8048 N.am    1  UNL1       -0.2747
      5 C          64.0968   91.4111   13.8385 C.2     1  UNL1        0.2442
      6 O          63.7338   91.2895   15.2888 O.2     1  UNL1       -0.2731
      7 C          63.6840   90.7715   11.3545 C.3     1  UNL1        0.1149
      8 C          62.9082   90.0101   10.3208 C.3     1  UNL1        0.1123
      9 C          61.1611   86.8799    9.5841 C.ar    1  UNL1        0.0076
     10 C          60.3853   86.1186    8.5504 C.ar    1  UNL1        0.0279
     11 C          59.4421   86.8431    7.6364 C.ar    1  UNL1        0.1400
     12 F          58.6663   86.0817    6.6027 F       1  UNL1       -0.2042
     13 C          59.2747   88.3289    7.7560 C.ar    1  UNL1        0.0309
     14 C          60.0505   89.0902    8.7897 C.ar    1  UNL1        0.0165
     15 C          60.9937   88.3657    9.7037 C.ar    1  UNL1        0.0453
     16 C          62.1043   86.1554   10.4981 C.3     1  UNL1        0.0781
     17 N          63.3884   85.5964    9.9608 N.3     1  UNL1       -0.2939
     18 H          64.0738   85.6571   10.7137 H       1  UNL1        0.1235
     19 C          63.4357   84.1889    9.4445 C.3     1  UNL1        0.0858
     20 C          64.2315   83.1483   10.1753 C.3     1  UNL1        0.0825
     21 N          63.6540   81.7821   10.3984 N.3     1  UNL1       -0.3200
     22 H          62.8495   81.8507   11.0217 H       1  UNL1        0.1189
     23 H          64.3603   81.1790   10.8200 H       1  UNL1        0.1189
     24 C          61.7635   85.9900   11.9494 C.3     1  UNL1        0.0203
     25 C          63.8211   86.1725   13.5253 C.3     1  UNL1        0.0001
     26 C          62.7466   85.3467   12.8821 C.3     1  UNL1        0.0017
     27 C          62.6552   83.8778   13.1715 C.3     1  UNL1        0.0001
     28 C          65.2355   92.2941   13.4219 C.3     1  UNL1        0.1564
     29 N          66.4249   92.4586   14.3209 N.am    1  UNL1       -0.2727
     30 C          67.1131   91.3642   15.0817 C.3     1  UNL1        0.0943
     31 C          68.2485   91.9755   15.8480 C.3     1  UNL1        0.0311
     32 C          68.2620   93.4477   15.5608 C.3     1  UNL1        0.0870
     33 C          67.1350   93.7463   14.6170 C.2     1  UNL1        0.2260
     34 O          66.7803   95.0956   14.0661 O.2     1  UNL1       -0.2749
     35 C          65.1849   93.0127   12.1061 C.3     1  UNL1        0.0564
     36 C          66.3205   92.8804   11.1351 C.ar    1  UNL1       -0.0094
     37 C          67.2649   91.7197   11.2392 C.ar    1  UNL1       -0.0025
     38 C          68.4006   91.5874   10.2682 C.ar    1  UNL1        0.0111
     39 C          68.5918   92.6159    9.1931 C.ar    1  UNL1        0.0585
     40 CL         69.7274   92.4836    8.2222 Cl      1  UNL1       -0.0822
     41 C          67.6474   93.7765    9.0891 C.ar    1  UNL1        0.0225
     42 C          66.5117   93.9088   10.0601 C.ar    1  UNL1        0.0546
     43 CL         65.5673   95.0695    9.9560 Cl      1  UNL1       -0.0825
@<TRIPOS>BOND
     1    25    26    1
     2    26    27    1
     3    26    24    1
     4    16    24    1
     5    16    17    1
     6    17    19    1
     7    19    20    1
     8    20    21    1
     9    16     9    1
    10     9    10   ar
    11    10    11   ar
    12    11    12    1
    13    11    13   ar
    14    13    14   ar
    15    14    15   ar
    16    15     1    1
    17     1     2    1
    18     2     3    1
    19     3     4    1
    20     4     5   am
    21     5     6    2
    22     5    28    1
    23    28    35    1
    24    35    36    1
    25    36    37   ar
    26    37    38   ar
    27    38    39   ar
    28    39    40    1
    29    39    41   ar
    30    41    42   ar
    31    42    43    1
    32    28    29    1
    33    29    30    1
    34    30    31    1
    35    31    32    1
    36    32    33    1
    37    33    34    2
    38     4     7    1
    39     7     8    1
    40    15     9   ar
    41     8     1    1
    42    42    36   ar
    43    33    29   am
    44    17    18    1
    45    21    22    1
    46    21    23    1
@<TRIPOS>MOLECULE
*****
 43 46 0 0 0
SMALL
GASTEIGER

@<TRIPOS>ATOM
      1 N          64.5981   91.3650   11.9899 N.pl3   1  UNL1       -0.3043
      2 C          64.8543   90.6112   13.2612 C.3     1  UNL1        0.1123
      3 C          64.2786   89.2388   13.4484 C.3     1  UNL1        0.1149
      4 N          63.4467   88.6202   12.3642 N.am    1  UNL1       -0.2747
      5 C          62.8709   87.2478   12.5514 C.2     1  UNL1        0.2442
      6 O          63.1271   86.4940   13.8227 O.2     1  UNL1       -0.2731
      7 C          63.1905   89.3740   11.0930 C.3     1  UNL1        0.1149
      8 C          63.7663   90.7465   10.9058 C.3     1  UNL1        0.1123
      9 C          65.9245   93.3950   12.9227 C.ar    1  UNL1        0.0076
     10 C          66.5002   94.7674   12.7355 C.ar    1  UNL1        0.0279
     11 C          66.3253   95.4822   11.4284 C.ar    1  UNL1        0.1400
     12 F          66.9011   96.8547   11.2413 F       1  UNL1       -0.2042
     13 C          65.5748   94.8247   10.3085 C.ar    1  UNL1        0.0309
     14 C          64.9991   93.4523   10.4957 C.ar    1  UNL1        0.0165
     15 C          65.1739   92.7375   11.8028 C.ar    1  UNL1        0.0453
     16 C          66.0993   92.6802   14.2297 C.3     1  UNL1        0.0781
     17 N          65.0986   92.8738   15.3302 N.3     1  UNL1       -0.2939
     18 H          64.1873   92.9790   14.8843 H       1  UNL1        0.1235
     19 C          64.9420   91.8280   16.3941 C.3     1  UNL1        0.0858
     20 C          63.5755   91.3291   16.7599 C.3     1  UNL1        0.0825
     21 N          63.1899   89.9107   16.4605 N.3     1  UNL1       -0.3200
     22 H          63.1570   89.7733   15.4504 H       1  UNL1        0.1189
     23 H          62.2718   89.7164   16.8602 H       1  UNL1        0.1189
     24 C          67.2749   91.7718   14.4364 C.3     1  UNL1        0.0203
     25 C          69.7997   92.0353   13.8831 C.3     1  UNL1        0.0001
     26 C          68.6217   92.3492   14.7571 C.3     1  UNL1        0.0017
     27 C          68.7904   93.2404   15.9518 C.3     1  UNL1        0.0001
     28 C          62.0391   86.6293   11.4673 C.3     1  UNL1        0.1564
     29 N          62.6214   85.5576   10.5941 N.am    1  UNL1       -0.2727
     30 C          62.9031   85.6733    9.1254 C.3     1  UNL1        0.0943
     31 C          63.4801   84.3694    8.6599 C.3     1  UNL1        0.0311
     32 C          63.5551   83.4477    9.8410 C.3     1  UNL1        0.0870
     33 C          63.0244   84.1821   11.0365 C.2     1  UNL1        0.2260
     34 O          62.9158   83.6367   12.4295 O.2     1  UNL1       -0.2749
     35 C          60.6247   87.0823   11.2564 C.3     1  UNL1        0.0564
     36 C          60.2268   87.7185    9.9576 C.ar    1  UNL1       -0.0094
     37 C          60.0146   86.8684    8.7400 C.ar    1  UNL1       -0.0025
     38 C          59.6167   87.5046    7.4412 C.ar    1  UNL1        0.0111
     39 C          59.4310   88.9909    7.3600 C.ar    1  UNL1        0.0585
     40 CL         59.0331   89.6272    6.0612 Cl      1  UNL1       -0.0822
     41 C          59.6432   89.8409    8.5775 C.ar    1  UNL1        0.0225
     42 C          60.0411   89.2047    9.8763 C.ar    1  UNL1        0.0546
     43 CL         60.2533   90.0547   11.0938 Cl      1  UNL1       -0.0825
@<TRIPOS>BOND
     1    25    26    1
     2    26    27    1
     3    26    24    1
     4    16    24    1
     5    16    17    1
     6    17    19    1
     7    19    20    1
     8    20    21    1
     9    16     9    1
    10     9    10   ar
    11    10    11   ar
    12    11    12    1
    13    11    13   ar
    14    13    14   ar
    15    14    15   ar
    16    15     1    1
    17     1     2    1
    18     2     3    1
    19     3     4    1
    20     4     5   am
    21     5     6    2
    22     5    28    1
    23    28    35    1
    24    35    36    1
    25    36    37   ar
    26    37    38   ar
    27    38    39   ar
    28    39    40    1
    29    39    41   ar
    30    41    42   ar
    31    42    43    1
    32    28    29    1
    33    29    30    1
    34    30    31    1
    35    31    32    1
    36    32    33    1
    37    33    34    2
    38     4     7    1
    39     7     8    1
    40    15     9   ar
    41     8     1    1
    42    42    36   ar
    43    33    29   am
    44    17    18    1
    45    21    22    1
    46    21    23    1
