@<TRIPOS>MOLECULE
*****
 26 29 0 0 0
SMALL
GASTEIGER

@<TRIPOS>ATOM
      1 C          62.9181   90.1234   12.4108 C.ar    1  UNL1        0.0564
      2 C          63.0853   89.0731   11.3531 C.ar    1  UNL1        0.0163
      3 C          61.7315   88.5052   11.0456 C.ar    1  UNL1        0.0209
      4 C          60.7275   89.2045   11.9134 C.ar    1  UNL1        0.0702
      5 N          61.4609   90.2046   12.7571 N.ar    1  UNL1       -0.3522
      6 H          61.0568   90.8083   13.4216 H       1  UNL1        0.1660
      7 CL         67.3074   93.4209   14.8317 Cl      1  UNL1       -0.0822
      8 C          66.2101   92.5965   14.2265 C.ar    1  UNL1        0.0577
      9 C          65.8218   92.8017   12.7923 C.ar    1  UNL1        0.0114
     10 C          64.7245   91.9773   12.1871 C.ar    1  UNL1        0.0023
     11 C          64.0155   90.9478   13.0161 C.ar    1  UNL1        0.0156
     12 C          64.4038   90.7426   14.4503 C.ar    1  UNL1        0.0023
     13 C          65.5011   91.5670   15.0555 C.ar    1  UNL1        0.0114
     14 C          61.4339   87.4272   10.0459 C.3     1  UNL1        0.1336
     15 C          62.1521   86.1127   10.1243 C.ar    1  UNL1        0.0026
     16 C          62.8282   85.5537    8.9075 C.ar    1  UNL1       -0.0013
     17 C          63.5464   84.2391    8.9859 C.ar    1  UNL1        0.0111
     18 C          63.5885   83.4836   10.2810 C.ar    1  UNL1        0.0577
     19 CL         64.3067   82.1690   10.3595 Cl      1  UNL1       -0.0822
     20 C          62.9125   84.0425   11.4977 C.ar    1  UNL1        0.0111
     21 C          62.1942   85.3571   11.4194 C.ar    1  UNL1       -0.0013
     22 N          60.4181   87.6638    8.9678 N.ar    1  UNL1       -0.3019
     23 C          60.1520   88.9690    8.2782 C.ar    1  UNL1        0.0985
     24 C          59.0596   88.7486    7.2743 C.ar    1  UNL1        0.1193
     25 N          58.6505   87.3071    7.3434 N.ar    1  UNL1       -0.2223
     26 C          59.4901   86.6367    8.3901 C.ar    1  UNL1        0.1791
@<TRIPOS>BOND
     1     7     8    1
     2     8     9   ar
     3     9    10   ar
     4    10    11   ar
     5    11     1    1
     6     1     2   ar
     7     2     3   ar
     8     3    14    1
     9    14    15    1
    10    15    16   ar
    11    16    17   ar
    12    17    18   ar
    13    18    19    1
    14    18    20   ar
    15    20    21   ar
    16    14    22    1
    17    22    23   ar
    18    23    24   ar
    19    24    25   ar
    20    25    26   ar
    21     3     4   ar
    22     4     5   ar
    23    11    12   ar
    24    12    13   ar
    25    13     8   ar
    26     5     1   ar
    27    21    15   ar
    28    26    22   ar
    29     5     6    1
@<TRIPOS>MOLECULE
*****
 26 29 0 0 0
SMALL
GASTEIGER

@<TRIPOS>ATOM
      1 C          62.8459   89.9868   11.9227 C.ar    1  UNL1        0.0564
      2 C          64.0310   90.8324   11.5618 C.ar    1  UNL1        0.0163
      3 C          64.6103   91.3844   12.8305 C.ar    1  UNL1        0.0209
      4 C          63.7831   90.8800   13.9757 C.ar    1  UNL1        0.0702
      5 N          62.6927   90.0162   13.4146 N.ar    1  UNL1       -0.3522
      6 H          61.9983   89.5503   13.9343 H       1  UNL1        0.1660
      7 CL         59.3346   87.0096    8.0747 Cl      1  UNL1       -0.0822
      8 C          60.2124   87.7539    9.0367 C.ar    1  UNL1        0.0577
      9 C          61.1548   87.0013    9.9285 C.ar    1  UNL1        0.0114
     10 C          62.0327   87.7456   10.8905 C.ar    1  UNL1        0.0023
     11 C          61.9681   89.2425   10.9607 C.ar    1  UNL1        0.0156
     12 C          61.0256   89.9951   10.0689 C.ar    1  UNL1        0.0023
     13 C          60.1478   89.2508    9.1069 C.ar    1  UNL1        0.0114
     14 C          65.8067   92.2831   12.9357 C.3     1  UNL1        0.1336
     15 C          66.2510   93.0825   11.7468 C.ar    1  UNL1        0.0026
     16 C          67.1009   92.4437   10.6886 C.ar    1  UNL1       -0.0013
     17 C          67.5452   93.2431    9.4997 C.ar    1  UNL1        0.0111
     18 C          67.1396   94.6813    9.3690 C.ar    1  UNL1        0.0577
     19 CL         67.5839   95.4808    8.1800 Cl      1  UNL1       -0.0822
     20 C          66.2897   95.3201   10.4270 C.ar    1  UNL1        0.0111
     21 C          65.8454   94.5207   11.6160 C.ar    1  UNL1       -0.0013
     22 N          66.5588   92.3824   14.2298 N.ar    1  UNL1       -0.3019
     23 C          68.0190   92.1003   14.4248 C.ar    1  UNL1        0.0985
     24 C          68.3454   92.3247   15.8715 C.ar    1  UNL1        0.1193
     25 N          67.0868   92.7456   16.5707 N.ar    1  UNL1       -0.2223
     26 C          65.9826   92.7812   15.5560 C.ar    1  UNL1        0.1791
@<TRIPOS>BOND
     1     7     8    1
     2     8     9   ar
     3     9    10   ar
     4    10    11   ar
     5    11     1    1
     6     1     2   ar
     7     2     3   ar
     8     3    14    1
     9    14    15    1
    10    15    16   ar
    11    16    17   ar
    12    17    18   ar
    13    18    19    1
    14    18    20   ar
    15    20    21   ar
    16    14    22    1
    17    22    23   ar
    18    23    24   ar
    19    24    25   ar
    20    25    26   ar
    21     3     4   ar
    22     4     5   ar
    23    11    12   ar
    24    12    13   ar
    25    13     8   ar
    26     5     1   ar
    27    21    15   ar
    28    26    22   ar
    29     5     6    1
@<TRIPOS>MOLECULE
*****
 26 29 0 0 0
SMALL
GASTEIGER

@<TRIPOS>ATOM
      1 C          62.5331   89.5934   10.6690 C.ar    1  UNL1        0.0564
      2 C          62.9793   89.2002   12.0460 C.ar    1  UNL1        0.0163
      3 C          63.8335   90.3067   12.5901 C.ar    1  UNL1        0.0209
      4 C          63.9152   91.3838   11.5493 C.ar    1  UNL1        0.0702
      5 N          63.1115   90.9429   10.3620 N.ar    1  UNL1       -0.3522
      6 H          62.9858   91.4502    9.5277 H       1  UNL1        0.1660
      7 CL         59.0466   86.3395    7.0280 Cl      1  UNL1       -0.0822
      8 C          59.9182   87.1530    7.9382 C.ar    1  UNL1        0.0577
      9 C          61.0410   86.4967    8.6856 C.ar    1  UNL1        0.0114
     10 C          61.9126   87.3101    9.5958 C.ar    1  UNL1        0.0023
     11 C          61.6615   88.7799    9.7587 C.ar    1  UNL1        0.0156
     12 C          60.5387   89.4362    9.0114 C.ar    1  UNL1        0.0023
     13 C          59.6671   88.6228    8.1011 C.ar    1  UNL1        0.0114
     14 C          64.4906   90.3317   13.9383 C.3     1  UNL1        0.1336
     15 C          64.0744   89.3505   14.9938 C.ar    1  UNL1        0.0026
     16 C          63.3454   89.8270   16.2151 C.ar    1  UNL1       -0.0013
     17 C          62.9292   88.8458   17.2706 C.ar    1  UNL1        0.0111
     18 C          63.2420   87.3882   17.1047 C.ar    1  UNL1        0.0577
     19 CL         62.8257   86.4070   18.1602 Cl      1  UNL1       -0.0822
     20 C          63.9709   86.9117   15.8835 C.ar    1  UNL1        0.0111
     21 C          64.3872   87.8929   14.8279 C.ar    1  UNL1       -0.0013
     22 N          65.5639   91.3379   14.2310 N.ar    1  UNL1       -0.3019
     23 C          65.6500   92.2054   15.4516 C.ar    1  UNL1        0.0985
     24 C          66.8788   93.0569   15.3295 C.ar    1  UNL1        0.1193
     25 N          67.5522   92.7156   14.0333 N.ar    1  UNL1       -0.2223
     26 C          66.7396   91.6532   13.3544 C.ar    1  UNL1        0.1791
@<TRIPOS>BOND
     1     7     8    1
     2     8     9   ar
     3     9    10   ar
     4    10    11   ar
     5    11     1    1
     6     1     2   ar
     7     2     3   ar
     8     3    14    1
     9    14    15    1
    10    15    16   ar
    11    16    17   ar
    12    17    18   ar
    13    18    19    1
    14    18    20   ar
    15    20    21   ar
    16    14    22    1
    17    22    23   ar
    18    23    24   ar
    19    24    25   ar
    20    25    26   ar
    21     3     4   ar
    22     4     5   ar
    23    11    12   ar
    24    12    13   ar
    25    13     8   ar
    26     5     1   ar
    27    21    15   ar
    28    26    22   ar
    29     5     6    1
@<TRIPOS>MOLECULE
*****
 26 29 0 0 0
SMALL
GASTEIGER

@<TRIPOS>ATOM
      1 C          62.5599   89.5231   10.9419 C.ar    1  UNL1        0.0564
      2 C          62.9554   89.0583   12.3121 C.ar    1  UNL1        0.0163
      3 C          63.8050   90.1254   12.9363 C.ar    1  UNL1        0.0209
      4 C          63.9344   91.2497   11.9518 C.ar    1  UNL1        0.0702
      5 N          63.1649   90.8775   10.7192 N.ar    1  UNL1       -0.3522
      6 H          63.0731   91.4258    9.9068 H       1  UNL1        0.1660
      7 CL         59.1552   86.4963    7.0372 Cl      1  UNL1       -0.0822
      8 C          60.0063   87.2530    8.0134 C.ar    1  UNL1        0.0577
      9 C          59.7571   88.7128    8.2515 C.ar    1  UNL1        0.0114
     10 C          60.6083   89.4695    9.2277 C.ar    1  UNL1        0.0023
     11 C          61.7087   88.7664    9.9657 C.ar    1  UNL1        0.0156
     12 C          61.9579   87.3066    9.7275 C.ar    1  UNL1        0.0023
     13 C          61.1067   86.5499    8.7514 C.ar    1  UNL1        0.0114
     14 C          64.4175   90.0767   14.3047 C.3     1  UNL1        0.1336
     15 C          65.4872   91.0577   14.6828 C.ar    1  UNL1        0.0026
     16 C          65.3014   91.9469   15.8765 C.ar    1  UNL1       -0.0013
     17 C          66.3712   92.9280   16.2547 C.ar    1  UNL1        0.0111
     18 C          67.6268   93.0199   15.4392 C.ar    1  UNL1        0.0577
     19 CL         68.6966   94.0010   15.8174 Cl      1  UNL1       -0.0822
     20 C          67.8126   92.1309   14.2456 C.ar    1  UNL1        0.0111
     21 C          66.7428   91.1497   13.8673 C.ar    1  UNL1       -0.0013
     22 N          63.9602   89.0469   15.2948 N.ar    1  UNL1       -0.3019
     23 C          63.1981   89.3160   16.5584 C.ar    1  UNL1        0.0985
     24 C          62.9516   88.0027   17.2398 C.ar    1  UNL1        0.1193
     25 N          63.5615   86.9218   16.3973 N.ar    1  UNL1       -0.2223
     26 C          64.1848   87.5671   15.1953 C.ar    1  UNL1        0.1791
@<TRIPOS>BOND
     1     7     8    1
     2     8     9   ar
     3     9    10   ar
     4    10    11   ar
     5    11     1    1
     6     1     2   ar
     7     2     3   ar
     8     3    14    1
     9    14    15    1
    10    15    16   ar
    11    16    17   ar
    12    17    18   ar
    13    18    19    1
    14    18    20   ar
    15    20    21   ar
    16    14    22    1
    17    22    23   ar
    18    23    24   ar
    19    24    25   ar
    20    25    26   ar
    21     3     4   ar
    22     4     5   ar
    23    11    12   ar
    24    12    13   ar
    25    13     8   ar
    26     5     1   ar
    27    21    15   ar
    28    26    22   ar
    29     5     6    1
@<TRIPOS>MOLECULE
*****
 26 29 0 0 0
SMALL
GASTEIGER

@<TRIPOS>ATOM
      1 C          63.5654   85.5328   13.5872 C.ar    1  UNL1        0.0564
      2 C          63.1315   86.6498   12.6850 C.ar    1  UNL1        0.0163
      3 C          63.6282   87.9383   13.2706 C.ar    1  UNL1        0.0209
      4 C          64.3691   87.6177   14.5349 C.ar    1  UNL1        0.0702
      5 N          64.3303   86.1310   14.7305 N.ar    1  UNL1       -0.3522
      6 H          64.7356   85.6350   15.4781 H       1  UNL1        0.1660
      7 CL         62.4393   79.6967   12.7672 Cl      1  UNL1       -0.0822
      8 C          62.7208   81.1558   12.9722 C.ar    1  UNL1        0.0577
      9 C          62.2493   81.8426   14.2195 C.ar    1  UNL1        0.0114
     10 C          62.5308   83.3016   14.4245 C.ar    1  UNL1        0.0023
     11 C          63.2839   84.0738   13.3822 C.ar    1  UNL1        0.0156
     12 C          63.7555   83.3870   12.1349 C.ar    1  UNL1        0.0023
     13 C          63.4739   81.9280   11.9299 C.ar    1  UNL1        0.0114
     14 C          63.4204   89.3071   12.6934 C.3     1  UNL1        0.1336
     15 C          64.3017   90.4431   13.1209 C.ar    1  UNL1        0.0026
     16 C          64.6011   91.5605   12.1661 C.ar    1  UNL1       -0.0013
     17 C          65.4825   92.6965   12.5937 C.ar    1  UNL1        0.0111
     18 C          66.0645   92.7149   13.9761 C.ar    1  UNL1        0.0577
     19 CL         66.9459   93.8509   14.4037 Cl      1  UNL1       -0.0822
     20 C          65.7651   91.5976   14.9309 C.ar    1  UNL1        0.0111
     21 C          64.8837   90.4615   14.5033 C.ar    1  UNL1       -0.0013
     22 N          62.3313   89.5400   11.6885 N.ar    1  UNL1       -0.3019
     23 C          60.9453   90.0291   11.9880 C.ar    1  UNL1        0.0985
     24 C          60.1944   90.1160   10.6924 C.ar    1  UNL1        0.1193
     25 N          61.1163   89.6806    9.5922 N.ar    1  UNL1       -0.2223
     26 C          62.4370   89.3246   10.2079 C.ar    1  UNL1        0.1791
@<TRIPOS>BOND
     1     7     8    1
     2     8     9   ar
     3     9    10   ar
     4    10    11   ar
     5    11     1    1
     6     1     2   ar
     7     2     3   ar
     8     3    14    1
     9    14    15    1
    10    15    16   ar
    11    16    17   ar
    12    17    18   ar
    13    18    19    1
    14    18    20   ar
    15    20    21   ar
    16    14    22    1
    17    22    23   ar
    18    23    24   ar
    19    24    25   ar
    20    25    26   ar
    21     3     4   ar
    22     4     5   ar
    23    11    12   ar
    24    12    13   ar
    25    13     8   ar
    26     5     1   ar
    27    21    15   ar
    28    26    22   ar
    29     5     6    1
@<TRIPOS>MOLECULE
*****
 26 29 0 0 0
SMALL
GASTEIGER

@<TRIPOS>ATOM
      1 C          61.9105   85.7381    9.9754 C.ar    1  UNL1        0.0564
      2 C          61.7245   85.4773   11.4408 C.ar    1  UNL1        0.0163
      3 C          62.7145   84.4289   11.8544 C.ar    1  UNL1        0.0209
      4 C          63.5123   84.0418   10.6446 C.ar    1  UNL1        0.0702
      5 N          63.0154   84.8509    9.4833 N.ar    1  UNL1       -0.3522
      6 H          63.3548   84.8074    8.5602 H       1  UNL1        0.1660
      7 CL         58.7839   89.6442    6.6638 Cl      1  UNL1       -0.0822
      8 C          59.5655   88.6677    7.4917 C.ar    1  UNL1        0.0577
      9 C          60.4218   89.1586    8.6212 C.ar    1  UNL1        0.0114
     10 C          61.2035   88.1821    9.4491 C.ar    1  UNL1        0.0023
     11 C          61.1288   86.7146    9.1475 C.ar    1  UNL1        0.0156
     12 C          60.2726   86.2237    8.0181 C.ar    1  UNL1        0.0023
     13 C          59.4909   87.2002    7.1902 C.ar    1  UNL1        0.0114
     14 C          62.8779   83.8665   13.2353 C.3     1  UNL1        0.1336
     15 C          62.9544   84.7881   14.4163 C.ar    1  UNL1        0.0026
     16 C          62.0558   84.5700   15.5973 C.ar    1  UNL1       -0.0013
     17 C          62.1323   85.4917   16.7783 C.ar    1  UNL1        0.0111
     18 C          63.1076   86.6313   16.7782 C.ar    1  UNL1        0.0577
     19 CL         63.1842   87.5530   17.9592 Cl      1  UNL1       -0.0822
     20 C          64.0063   86.8494   15.5973 C.ar    1  UNL1        0.0111
     21 C          63.9297   85.9278   14.4162 C.ar    1  UNL1       -0.0013
     22 N          62.9647   82.3824   13.4352 N.ar    1  UNL1       -0.3019
     23 C          61.9469   81.3724   12.9949 C.ar    1  UNL1        0.0985
     24 C          62.4377   80.0135   13.3981 C.ar    1  UNL1        0.1193
     25 N          63.7589   80.1837   14.0877 N.ar    1  UNL1       -0.2223
     26 C          64.0845   81.6477   14.1107 C.ar    1  UNL1        0.1791
@<TRIPOS>BOND
     1     7     8    1
     2     8     9   ar
     3     9    10   ar
     4    10    11   ar
     5    11     1    1
     6     1     2   ar
     7     2     3   ar
     8     3    14    1
     9    14    15    1
    10    15    16   ar
    11    16    17   ar
    12    17    18   ar
    13    18    19    1
    14    18    20   ar
    15    20    21   ar
    16    14    22    1
    17    22    23   ar
    18    23    24   ar
    19    24    25   ar
    20    25    26   ar
    21     3     4   ar
    22     4     5   ar
    23    11    12   ar
    24    12    13   ar
    25    13     8   ar
    26     5     1   ar
    27    21    15   ar
    28    26    22   ar
    29     5     6    1
@<TRIPOS>MOLECULE
*****
 26 29 0 0 0
SMALL
GASTEIGER

@<TRIPOS>ATOM
      1 C          62.1783   88.4452   10.2627 C.ar    1  UNL1        0.0564
      2 C          63.0577   88.2831   11.4670 C.ar    1  UNL1        0.0163
      3 C          63.1091   89.5996   12.1841 C.ar    1  UNL1        0.0209
      4 C          62.2614   90.5754   11.4230 C.ar    1  UNL1        0.0702
      5 N          61.6862   89.8619   10.2356 N.ar    1  UNL1       -0.3522
      6 H          61.0902   90.2546    9.5574 H       1  UNL1        0.1660
      7 CL         60.8605   84.1765    6.2576 Cl      1  UNL1       -0.0822
      8 C          61.1899   85.2437    7.2589 C.ar    1  UNL1        0.0577
      9 C          62.5471   85.2806    7.8966 C.ar    1  UNL1        0.0114
     10 C          62.8766   86.3477    8.8979 C.ar    1  UNL1        0.0023
     11 C          61.8488   87.3780    9.2615 C.ar    1  UNL1        0.0156
     12 C          60.4917   87.3411    8.6238 C.ar    1  UNL1        0.0023
     13 C          60.1622   86.2739    7.6225 C.ar    1  UNL1        0.0114
     14 C          63.8739   89.8894   13.4416 C.3     1  UNL1        0.1336
     15 C          63.6628   89.0407   14.6602 C.ar    1  UNL1        0.0026
     16 C          64.0836   87.6009   14.6536 C.ar    1  UNL1       -0.0013
     17 C          63.8725   86.7522   15.8722 C.ar    1  UNL1        0.0111
     18 C          63.2405   87.3433   17.0975 C.ar    1  UNL1        0.0577
     19 CL         63.0294   86.4946   18.3162 Cl      1  UNL1       -0.0822
     20 C          62.8197   88.7830   17.1042 C.ar    1  UNL1        0.0111
     21 C          63.0308   89.6318   15.8855 C.ar    1  UNL1       -0.0013
     22 N          64.8498   91.0279   13.4803 N.ar    1  UNL1       -0.3019
     23 C          65.0268   92.0739   12.4200 C.ar    1  UNL1        0.0985
     24 C          66.1064   93.0127   12.8705 C.ar    1  UNL1        0.1193
     25 N          66.5967   92.5469   14.2094 N.ar    1  UNL1       -0.2223
     26 C          65.8200   91.3202   14.5863 C.ar    1  UNL1        0.1791
@<TRIPOS>BOND
     1     7     8    1
     2     8     9   ar
     3     9    10   ar
     4    10    11   ar
     5    11     1    1
     6     1     2   ar
     7     2     3   ar
     8     3    14    1
     9    14    15    1
    10    15    16   ar
    11    16    17   ar
    12    17    18   ar
    13    18    19    1
    14    18    20   ar
    15    20    21   ar
    16    14    22    1
    17    22    23   ar
    18    23    24   ar
    19    24    25   ar
    20    25    26   ar
    21     3     4   ar
    22     4     5   ar
    23    11    12   ar
    24    12    13   ar
    25    13     8   ar
    26     5     1   ar
    27    21    15   ar
    28    26    22   ar
    29     5     6    1
@<TRIPOS>MOLECULE
*****
 26 29 0 0 0
SMALL
GASTEIGER

@<TRIPOS>ATOM
      1 C          63.5684   85.3653   13.6893 C.ar    1  UNL1        0.0564
      2 C          63.0556   86.3950   12.7266 C.ar    1  UNL1        0.0163
      3 C          63.5550   87.7369   13.1735 C.ar    1  UNL1        0.0209
      4 C          64.3764   87.5367   14.4125 C.ar    1  UNL1        0.0702
      5 N          64.3846   86.0710   14.7313 N.ar    1  UNL1       -0.3522
      6 H          64.8450   85.6466   15.4911 H       1  UNL1        0.1660
      7 CL         62.5357   79.4610   13.4198 Cl      1  UNL1       -0.0822
      8 C          62.7939   80.9371   13.4872 C.ar    1  UNL1        0.0577
      9 C          63.8217   81.5604   12.5900 C.ar    1  UNL1        0.0114
     10 C          64.0799   83.0365   12.6574 C.ar    1  UNL1        0.0023
     11 C          63.3102   83.8893   13.6220 C.ar    1  UNL1        0.0156
     12 C          62.2824   83.2659   14.5191 C.ar    1  UNL1        0.0023
     13 C          62.0242   81.7899   14.4517 C.ar    1  UNL1        0.0114
     14 C          63.2810   89.0488   12.4997 C.3     1  UNL1        0.1336
     15 C          62.3191   89.1153   11.3507 C.ar    1  UNL1        0.0026
     16 C          61.3047   90.2183   11.2846 C.ar    1  UNL1       -0.0013
     17 C          60.3428   90.2848   10.1356 C.ar    1  UNL1        0.0111
     18 C          60.3953   89.2482    9.0526 C.ar    1  UNL1        0.0577
     19 CL         59.4334   89.3146    7.9035 Cl      1  UNL1       -0.0822
     20 C          61.4096   88.1452    9.1186 C.ar    1  UNL1        0.0111
     21 C          62.3716   88.0787   10.2677 C.ar    1  UNL1       -0.0013
     22 N          63.9690   90.2942   12.9749 N.ar    1  UNL1       -0.3019
     23 C          64.6680   91.3002   12.1095 C.ar    1  UNL1        0.0985
     24 C          65.2097   92.3799   12.9987 C.ar    1  UNL1        0.1193
     25 N          64.8454   92.0412   14.4138 N.ar    1  UNL1       -0.2223
     26 C          64.0786   90.7521   14.3991 C.ar    1  UNL1        0.1791
@<TRIPOS>BOND
     1     7     8    1
     2     8     9   ar
     3     9    10   ar
     4    10    11   ar
     5    11     1    1
     6     1     2   ar
     7     2     3   ar
     8     3    14    1
     9    14    15    1
    10    15    16   ar
    11    16    17   ar
    12    17    18   ar
    13    18    19    1
    14    18    20   ar
    15    20    21   ar
    16    14    22    1
    17    22    23   ar
    18    23    24   ar
    19    24    25   ar
    20    25    26   ar
    21     3     4   ar
    22     4     5   ar
    23    11    12   ar
    24    12    13   ar
    25    13     8   ar
    26     5     1   ar
    27    21    15   ar
    28    26    22   ar
    29     5     6    1
@<TRIPOS>MOLECULE
*****
 26 29 0 0 0
SMALL
GASTEIGER

@<TRIPOS>ATOM
      1 C          62.7077   84.0601   10.7556 C.ar    1  UNL1        0.0564
      2 C          62.0175   85.3630   11.0313 C.ar    1  UNL1        0.0163
      3 C          62.2877   86.2838    9.8784 C.ar    1  UNL1        0.0209
      4 C          63.1450   85.5500    8.8902 C.ar    1  UNL1        0.0702
      5 N          63.4045   84.1757    9.4323 N.ar    1  UNL1       -0.3522
      6 H          63.9385   83.4729    8.9962 H       1  UNL1        0.1660
      7 CL         62.6851   79.2336   14.3199 Cl      1  UNL1       -0.0822
      8 C          62.6908   80.4402   13.4288 C.ar    1  UNL1        0.0577
      9 C          62.8903   80.2801   11.9508 C.ar    1  UNL1        0.0114
     10 C          62.8959   81.4868   11.0597 C.ar    1  UNL1        0.0023
     11 C          62.7020   82.8535   11.6466 C.ar    1  UNL1        0.0156
     12 C          62.5025   83.0135   13.1246 C.ar    1  UNL1        0.0023
     13 C          62.4968   81.8069   14.0157 C.ar    1  UNL1        0.0114
     14 C          61.7884   87.6913    9.7384 C.3     1  UNL1        0.1336
     15 C          62.4505   88.8012   10.4998 C.ar    1  UNL1        0.0026
     16 C          62.8620   88.5903   11.9268 C.ar    1  UNL1       -0.0013
     17 C          63.5241   89.7002   12.6882 C.ar    1  UNL1        0.0111
     18 C          63.7746   91.0209   12.0227 C.ar    1  UNL1        0.0577
     19 CL         64.4368   92.1309   12.7841 Cl      1  UNL1       -0.0822
     20 C          63.3631   91.2318   10.5958 C.ar    1  UNL1        0.0111
     21 C          62.7010   90.1219    9.8343 C.ar    1  UNL1       -0.0013
     22 N          60.6270   87.9889    8.8370 N.ar    1  UNL1       -0.3019
     23 C          60.2595   89.3355    8.2879 C.ar    1  UNL1        0.0985
     24 C          59.0346   89.1711    7.4379 C.ar    1  UNL1        0.1193
     25 N          58.6450   87.7228    7.4617 N.ar    1  UNL1       -0.2223
     26 C          59.6291   86.9922    8.3264 C.ar    1  UNL1        0.1791
@<TRIPOS>BOND
     1     7     8    1
     2     8     9   ar
     3     9    10   ar
     4    10    11   ar
     5    11     1    1
     6     1     2   ar
     7     2     3   ar
     8     3    14    1
     9    14    15    1
    10    15    16   ar
    11    16    17   ar
    12    17    18   ar
    13    18    19    1
    14    18    20   ar
    15    20    21   ar
    16    14    22    1
    17    22    23   ar
    18    23    24   ar
    19    24    25   ar
    20    25    26   ar
    21     3     4   ar
    22     4     5   ar
    23    11    12   ar
    24    12    13   ar
    25    13     8   ar
    26     5     1   ar
    27    21    15   ar
    28    26    22   ar
    29     5     6    1
