@<TRIPOS>MOLECULE
*****
 66 73 0 0 0
SMALL
GASTEIGER

@<TRIPOS>ATOM
      1 N          61.8416   94.4487   -3.4584 N.3     1  UNL1       -0.1862
      2 C          60.6390   94.0674   -4.2698 C.3     1  UNL1        0.1775
      3 C          59.3828   93.6188   -3.5836 C.2     1  UNL1        0.2452
      4 O          58.1802   93.2375   -4.3950 O.2     1  UNL1       -0.2732
      5 N          59.3292   93.5517   -2.0861 N.am    1  UNL1       -0.2541
      6 C          58.0730   93.1031   -1.3999 C.3     1  UNL1        0.1577
      7 C          58.0194   93.0360    0.0976 C.2     1  UNL1        0.2445
      8 O          56.7632   92.5874    0.7837 O.2     1  UNL1       -0.2731
      9 N          59.2220   93.4173    0.9090 N.am    1  UNL1       -0.2705
     10 C          60.4782   93.8658    0.2228 C.3     1  UNL1        0.1359
     11 C          60.5318   93.9330   -1.2748 C.3     1  UNL1        0.1908
     12 N          61.7880   94.3815   -1.9609 N.am    1  UNL1       -0.1863
     13 C          62.9906   94.7628   -1.1495 C.2     1  UNL1        0.3191
     14 O          62.9370   94.6956    0.3480 O.2     1  UNL1       -0.2512
     15 N          64.2468   95.2113   -1.8356 N.am    1  UNL1       -0.2836
     16 H          64.2820   95.2554   -2.8185 H       1  UNL1        0.1513
     17 C          63.0978   94.8972   -4.1446 C.3     1  UNL1        0.1188
     18 C          64.3873   94.0041   -6.2157 C.2     1  UNL1       -0.0034
     19 C          64.0140   93.8861   -4.7677 C.2     1  UNL1       -0.0071
     20 C          56.8704   92.7218   -2.2113 C.3     1  UNL1        0.0556
     21 C          55.7973   93.7340   -2.4829 C.ar    1  UNL1       -0.0198
     22 C          54.9630   94.2639   -1.3546 C.ar    1  UNL1       -0.0011
     23 C          53.8899   95.2761   -1.6262 C.ar    1  UNL1        0.0363
     24 C          53.6510   95.7585   -3.0263 C.ar    1  UNL1        0.1337
     25 O          52.5778   96.7707   -3.2979 O.3     1  UNL1       -0.5055
     26 C          54.4852   95.2286   -4.1548 C.ar    1  UNL1        0.0363
     27 C          55.5584   94.2164   -3.8831 C.ar    1  UNL1       -0.0011
     28 H          52.0567   97.1016   -2.5931 H       1  UNL1        0.2922
     29 C          59.1684   93.3501    2.4065 C.3     1  UNL1        0.1217
     30 C          60.0398   92.3780    3.1453 C.ar    1  UNL1        0.0135
     31 C          61.4990   92.2762    2.8131 C.ar    1  UNL1       -0.0012
     32 C          62.3703   91.3041    3.5519 C.ar    1  UNL1       -0.0002
     33 C          61.7825   90.4339    4.6229 C.ar    1  UNL1        0.0015
     34 C          60.3233   90.5357    4.9551 C.ar    1  UNL1        0.0170
     35 C          59.4685   89.8133    5.9539 C.ar    1  UNL1        0.0186
     36 C          58.0689   90.3390    5.8324 C.ar    1  UNL1        0.0759
     37 N          58.0587   91.3861    4.7585 N.ar    1  UNL1       -0.3242
     38 C          56.8648   92.1735    4.3062 C.3     1  UNL1        0.1305
     39 C          59.4519   91.5077    4.2163 C.ar    1  UNL1        0.0575
     40 C          59.9320   88.7517    6.9069 C.ar    1  UNL1        0.0016
     41 C          59.7800   87.3032    6.5478 C.ar    1  UNL1        0.0013
     42 C          60.2435   86.2417    7.5009 C.ar    1  UNL1        0.0147
     43 C          60.8590   86.6286    8.8129 C.ar    1  UNL1        0.0516
     44 C          61.0111   88.0770    9.1720 C.ar    1  UNL1        0.0147
     45 C          60.5476   89.1385    8.2189 C.ar    1  UNL1        0.0013
     46 N          61.3225   85.5670    9.7659 N.am    1  UNL1       -0.2681
     47 C          61.7198   85.9360   11.1645 C.2     1  UNL1        0.3082
     48 O          61.6535   87.3668   11.6100 O.2     1  UNL1       -0.2522
     49 N          62.1833   84.8744   12.1173 N.am    1  UNL1       -0.2681
     50 H          61.3660   84.6279    9.4734 H       1  UNL1        0.1564
     51 H          62.2267   83.9353   11.8249 H       1  UNL1        0.1564
     52 C          62.5805   85.2435   13.5159 C.ar    1  UNL1        0.0518
     53 C          63.7083   86.2053   13.7461 C.ar    1  UNL1        0.0178
     54 C          64.1056   86.5744   15.1447 C.ar    1  UNL1        0.0382
     55 C          63.3749   85.9817   16.3131 C.ar    1  UNL1        0.1388
     56 C          62.2471   85.0200   16.0828 C.ar    1  UNL1        0.0382
     57 C          61.8499   84.6509   14.6842 C.ar    1  UNL1        0.0178
     58 O          63.7722   86.3509   17.7116 O.3     1  UNL1       -0.4714
     59 C          62.7302   86.7966   18.6943 C.3     1  UNL1        0.2525
     60 C          65.4494   95.5926   -1.0243 C.3     1  UNL1        0.1177
     61 C          65.3687   95.6107    0.4734 C.ar    1  UNL1       -0.0025
     62 C          65.9052   94.4567    1.2674 C.ar    1  UNL1       -0.0026
     63 C          65.8245   94.4748    2.7651 C.ar    1  UNL1       -0.0003
     64 C          65.2073   95.6468    3.4689 C.ar    1  UNL1       -0.0000
     65 C          64.6708   96.8009    2.6749 C.ar    1  UNL1       -0.0003
     66 C          64.7515   96.7828    1.1772 C.ar    1  UNL1       -0.0026
@<TRIPOS>BOND
     1    18    19    2
     2    19    17    1
     3    17     1    1
     4     1     2    1
     5     2     3    1
     6     3     4    2
     7     3     5   am
     8     5     6    1
     9     6    20    1
    10    20    21    1
    11    21    22   ar
    12    22    23   ar
    13    23    24   ar
    14    24    25    1
    15    24    26   ar
    16    26    27   ar
    17     6     7    1
    18     7     8    2
    19     7     9   am
    20     9    29    1
    21    29    30    1
    22    30    31   ar
    23    31    32   ar
    24    32    33   ar
    25    33    34   ar
    26    34    35   ar
    27    35    40    1
    28    40    41   ar
    29    41    42   ar
    30    42    43   ar
    31    43    46    1
    32    46    47   am
    33    47    48    2
    34    47    49   am
    35    49    52    1
    36    52    53   ar
    37    53    54   ar
    38    54    55   ar
    39    55    58    1
    40    58    59    1
    41    55    56   ar
    42    56    57   ar
    43    43    44   ar
    44    44    45   ar
    45    35    36   ar
    46    36    37   ar
    47    37    38    1
    48    37    39   ar
    49     9    10    1
    50    11    10    1
    51    11    12    1
    52    12    13   am
    53    13    14    2
    54    13    15   am
    55    15    60    1
    56    60    61    1
    57    61    62   ar
    58    62    63   ar
    59    63    64   ar
    60    64    65   ar
    61    65    66   ar
    62    12     1    1
    63    66    61   ar
    64    11     5    1
    65    27    21   ar
    66    39    30   ar
    67    39    34   ar
    68    45    40   ar
    69    57    52   ar
    70    25    28    1
    71    46    50    1
    72    49    51    1
    73    15    16    1
@<TRIPOS>MOLECULE
*****
 66 73 0 0 0
SMALL
GASTEIGER

@<TRIPOS>ATOM
      1 N          65.6532   89.2475   14.5498 N.3     1  UNL1       -0.1862
      2 C          65.9322   88.0022   15.3379 C.3     1  UNL1        0.1775
      3 C          65.1274   86.7610   15.0890 C.2     1  UNL1        0.2452
      4 O          65.4064   85.5156   15.8772 O.2     1  UNL1       -0.2732
      5 N          64.0438   86.7652   14.0519 N.am    1  UNL1       -0.2541
      6 C          63.2391   85.5241   13.8030 C.3     1  UNL1        0.1577
      7 C          62.1554   85.5283   12.7659 C.2     1  UNL1        0.2445
      8 O          61.3507   84.2872   12.5169 O.2     1  UNL1       -0.2731
      9 N          61.8764   86.7737   11.9776 N.am    1  UNL1       -0.2705
     10 C          62.6811   88.0148   12.2266 C.3     1  UNL1        0.1359
     11 C          63.7649   88.0106   13.2638 C.3     1  UNL1        0.1908
     12 N          64.5696   89.2517   13.5127 N.am    1  UNL1       -0.1863
     13 C          64.2906   90.4971   12.7245 C.2     1  UNL1        0.3191
     14 O          63.2069   90.5013   11.6874 O.2     1  UNL1       -0.2512
     15 N          65.0953   91.7383   12.9734 N.am    1  UNL1       -0.2836
     16 H          65.8066   91.7355   13.6541 H       1  UNL1        0.1513
     17 C          66.4580   90.4887   14.7987 C.3     1  UNL1        0.1188
     18 C          66.7553   92.7602   16.0242 C.2     1  UNL1       -0.0034
     19 C          65.8973   91.5875   15.6520 C.2     1  UNL1       -0.0071
     20 C          63.5180   84.2787   14.5911 C.3     1  UNL1        0.0556
     21 C          63.2523   82.9325   13.9853 C.ar    1  UNL1       -0.0198
     22 C          64.1326   82.4181   12.8852 C.ar    1  UNL1       -0.0011
     23 C          63.8669   81.0719   12.2794 C.ar    1  UNL1        0.0363
     24 C          62.7209   80.2400   12.7738 C.ar    1  UNL1        0.1337
     25 O          62.4552   78.8937   12.1680 O.3     1  UNL1       -0.5055
     26 C          61.8405   80.7543   13.8740 C.ar    1  UNL1        0.0363
     27 C          62.1062   82.1005   14.4798 C.ar    1  UNL1       -0.0011
     28 H          63.0051   78.5724   11.4807 H       1  UNL1        0.2922
     29 C          60.7928   86.7779   10.9406 C.3     1  UNL1        0.1217
     30 C          60.3956   88.0627   10.2760 C.ar    1  UNL1        0.0135
     31 C          60.0495   89.2618   11.1082 C.ar    1  UNL1       -0.0012
     32 C          59.6523   90.5465   10.4437 C.ar    1  UNL1       -0.0002
     33 C          59.6012   90.6323    8.9471 C.ar    1  UNL1        0.0015
     34 C          59.9473   89.4332    8.1149 C.ar    1  UNL1        0.0170
     35 C          59.9865   89.2190    6.6308 C.ar    1  UNL1        0.0186
     36 C          60.4080   87.8018    6.3781 C.ar    1  UNL1        0.0759
     37 N          60.6292   87.1402    7.7059 N.ar    1  UNL1       -0.3242
     38 C          61.0596   85.7197    7.9224 C.3     1  UNL1        0.1305
     39 C          60.3445   88.1485    8.7794 C.ar    1  UNL1        0.0575
     40 C          59.6614   90.2423    5.5833 C.ar    1  UNL1        0.0016
     41 C          60.7620   90.8672    4.7781 C.ar    1  UNL1        0.0013
     42 C          60.4368   91.8905    3.7307 C.ar    1  UNL1        0.0147
     43 C          59.0111   92.2889    3.4885 C.ar    1  UNL1        0.0516
     44 C          57.9105   91.6640    4.2936 C.ar    1  UNL1        0.0147
     45 C          58.2357   90.6407    5.3410 C.ar    1  UNL1        0.0013
     46 N          58.6860   93.3122    2.4410 N.am    1  UNL1       -0.2681
     47 C          59.4103   93.2973    1.1275 C.2     1  UNL1        0.3082
     48 O          60.4597   92.2591    0.8615 O.2     1  UNL1       -0.2522
     49 N          59.0851   94.3206    0.0801 N.am    1  UNL1       -0.2681
     50 H          57.9972   93.9936    2.6156 H       1  UNL1        0.1564
     51 H          58.3963   95.0020    0.2547 H       1  UNL1        0.1564
     52 C          59.8094   94.3057   -1.2333 C.ar    1  UNL1        0.0518
     53 C          59.0691   93.9713   -2.4943 C.ar    1  UNL1        0.0178
     54 C          59.7934   93.9563   -3.8078 C.ar    1  UNL1        0.0382
     55 C          61.2581   94.2758   -3.8602 C.ar    1  UNL1        0.1388
     56 C          61.9985   94.6102   -2.5993 C.ar    1  UNL1        0.0382
     57 C          61.2741   94.6251   -1.2858 C.ar    1  UNL1        0.0178
     58 O          61.9824   94.2608   -5.1737 O.3     1  UNL1       -0.4714
     59 C          63.3011   93.5563   -5.2950 C.3     1  UNL1        0.2525
     60 C          64.8164   92.9836   12.1852 C.3     1  UNL1        0.1177
     61 C          65.8167   93.4760   11.1818 C.ar    1  UNL1       -0.0025
     62 C          66.8061   92.5230   10.5794 C.ar    1  UNL1       -0.0026
     63 C          67.8064   93.0154    9.5759 C.ar    1  UNL1       -0.0003
     64 C          67.8174   94.4607    9.1749 C.ar    1  UNL1       -0.0000
     65 C          66.8280   95.4138    9.7773 C.ar    1  UNL1       -0.0003
     66 C          65.8277   94.9214   10.7808 C.ar    1  UNL1       -0.0026
@<TRIPOS>BOND
     1    18    19    2
     2    19    17    1
     3    17     1    1
     4     1     2    1
     5     2     3    1
     6     3     4    2
     7     3     5   am
     8     5     6    1
     9     6    20    1
    10    20    21    1
    11    21    22   ar
    12    22    23   ar
    13    23    24   ar
    14    24    25    1
    15    24    26   ar
    16    26    27   ar
    17     6     7    1
    18     7     8    2
    19     7     9   am
    20     9    29    1
    21    29    30    1
    22    30    31   ar
    23    31    32   ar
    24    32    33   ar
    25    33    34   ar
    26    34    35   ar
    27    35    40    1
    28    40    41   ar
    29    41    42   ar
    30    42    43   ar
    31    43    46    1
    32    46    47   am
    33    47    48    2
    34    47    49   am
    35    49    52    1
    36    52    53   ar
    37    53    54   ar
    38    54    55   ar
    39    55    58    1
    40    58    59    1
    41    55    56   ar
    42    56    57   ar
    43    43    44   ar
    44    44    45   ar
    45    35    36   ar
    46    36    37   ar
    47    37    38    1
    48    37    39   ar
    49     9    10    1
    50    11    10    1
    51    11    12    1
    52    12    13   am
    53    13    14    2
    54    13    15   am
    55    15    60    1
    56    60    61    1
    57    61    62   ar
    58    62    63   ar
    59    63    64   ar
    60    64    65   ar
    61    65    66   ar
    62    12     1    1
    63    66    61   ar
    64    11     5    1
    65    27    21   ar
    66    39    30   ar
    67    39    34   ar
    68    45    40   ar
    69    57    52   ar
    70    25    28    1
    71    46    50    1
    72    49    51    1
    73    15    16    1
@<TRIPOS>MOLECULE
*****
 66 73 0 0 0
SMALL
GASTEIGER

@<TRIPOS>ATOM
      1 N          59.7375   96.2718   -3.7585 N.3     1  UNL1       -0.1862
      2 C          61.1452   96.7530   -3.5669 C.3     1  UNL1        0.1775
      3 C          61.9102   96.3632   -2.3370 C.2     1  UNL1        0.2452
      4 O          63.3181   96.8443   -2.1455 O.2     1  UNL1       -0.2732
      5 N          61.2675   95.4922   -1.2986 N.am    1  UNL1       -0.2541
      6 C          62.0325   95.1025   -0.0686 C.3     1  UNL1        0.1577
      7 C          61.3898   94.2315    0.9698 C.2     1  UNL1        0.2445
      8 O          62.1548   93.8418    2.1998 O.2     1  UNL1       -0.2731
      9 N          59.9820   93.7504    0.7783 N.am    1  UNL1       -0.2705
     10 C          59.2170   94.1402   -0.4516 C.3     1  UNL1        0.1359
     11 C          59.8598   95.0111   -1.4901 C.3     1  UNL1        0.1908
     12 N          59.0947   95.4009   -2.7200 N.am    1  UNL1       -0.1863
     13 C          57.6869   94.9198   -2.9115 C.2     1  UNL1        0.3191
     14 O          57.0442   94.0488   -1.8731 O.2     1  UNL1       -0.2512
     15 N          56.9219   95.3096   -4.1415 N.am    1  UNL1       -0.2836
     16 H          57.3438   95.8812   -4.8231 H       1  UNL1        0.1513
     17 C          58.9724   96.6616   -4.9884 C.3     1  UNL1        0.1188
     18 C          59.5719   94.7253   -6.6136 C.2     1  UNL1       -0.0034
     19 C          59.4317   96.1929   -6.3373 C.2     1  UNL1       -0.0071
     20 C          63.4403   95.5836    0.1229 C.3     1  UNL1        0.0556
     21 C          63.9672   95.8296    1.5056 C.ar    1  UNL1       -0.0198
     22 C          65.3121   95.2963    1.9016 C.ar    1  UNL1       -0.0011
     23 C          65.8391   95.5423    3.2842 C.ar    1  UNL1        0.0363
     24 C          65.0212   96.3215    4.2710 C.ar    1  UNL1        0.1337
     25 O          65.5481   96.5675    5.6537 O.3     1  UNL1       -0.5055
     26 C          63.6762   96.8548    3.8751 C.ar    1  UNL1        0.0363
     27 C          63.1492   96.6089    2.4924 C.ar    1  UNL1       -0.0011
     28 H          66.3883   96.2344    5.9010 H       1  UNL1        0.2922
     29 C          59.3393   92.8795    1.8168 C.3     1  UNL1        0.1217
     30 C          60.1905   92.1310    2.7993 C.ar    1  UNL1        0.0135
     31 C          61.6455   91.9061    2.5124 C.ar    1  UNL1       -0.0012
     32 C          62.4968   91.1576    3.4948 C.ar    1  UNL1       -0.0002
     33 C          61.8930   90.6341    4.7641 C.ar    1  UNL1        0.0015
     34 C          60.4379   90.8590    5.0510 C.ar    1  UNL1        0.0170
     35 C          59.5705   90.4637    6.2091 C.ar    1  UNL1        0.0186
     36 C          58.1832   90.9678    5.9424 C.ar    1  UNL1        0.0759
     37 N          58.1932   91.6747    4.6196 N.ar    1  UNL1       -0.3242
     38 C          57.0163   92.3332    3.9628 C.3     1  UNL1        0.1305
     39 C          59.5867   91.6074    4.0686 C.ar    1  UNL1        0.0575
     40 C          60.0128   89.6985    7.4212 C.ar    1  UNL1        0.0016
     41 C          59.4690   88.3248    7.6806 C.ar    1  UNL1        0.0013
     42 C          59.9113   87.5597    8.8926 C.ar    1  UNL1        0.0147
     43 C          60.8973   88.1683    9.8452 C.ar    1  UNL1        0.0516
     44 C          61.4411   89.5420    9.5858 C.ar    1  UNL1        0.0147
     45 C          60.9988   90.3070    8.3738 C.ar    1  UNL1        0.0013
     46 N          61.3395   87.4032   11.0572 N.am    1  UNL1       -0.2681
     47 C          61.6227   85.9337   10.9546 C.2     1  UNL1        0.3082
     48 O          61.4635   85.2293    9.6398 O.2     1  UNL1       -0.2522
     49 N          62.0649   85.1686   12.1666 N.am    1  UNL1       -0.2681
     50 H          61.4440   87.8654   11.9201 H       1  UNL1        0.1564
     51 H          62.1693   85.6309   13.0295 H       1  UNL1        0.1564
     52 C          62.3480   83.6992   12.0638 C.ar    1  UNL1        0.0518
     53 C          63.0139   83.1475   10.8382 C.ar    1  UNL1        0.0178
     54 C          63.2970   81.6781   10.7354 C.ar    1  UNL1        0.0382
     55 C          62.9142   80.7602   11.8584 C.ar    1  UNL1        0.1388
     56 C          62.2483   81.3118   13.0841 C.ar    1  UNL1        0.0382
     57 C          61.9652   82.7813   13.1868 C.ar    1  UNL1        0.0178
     58 O          63.1973   79.2907   11.7557 O.3     1  UNL1       -0.4714
     59 C          62.8218   78.5397   10.5127 C.3     1  UNL1        0.2525
     60 C          55.5142   94.8284   -4.3330 C.3     1  UNL1        0.1177
     61 C          54.3859   95.5040   -3.6115 C.ar    1  UNL1       -0.0025
     62 C          53.2568   96.1135   -4.3884 C.ar    1  UNL1       -0.0026
     63 C          52.1286   96.7891   -3.6668 C.ar    1  UNL1       -0.0003
     64 C          52.1295   96.8552   -2.1683 C.ar    1  UNL1       -0.0000
     65 C          53.2586   96.2458   -1.3913 C.ar    1  UNL1       -0.0003
     66 C          54.3869   95.5702   -2.1129 C.ar    1  UNL1       -0.0026
@<TRIPOS>BOND
     1    18    19    2
     2    19    17    1
     3    17     1    1
     4     1     2    1
     5     2     3    1
     6     3     4    2
     7     3     5   am
     8     5     6    1
     9     6    20    1
    10    20    21    1
    11    21    22   ar
    12    22    23   ar
    13    23    24   ar
    14    24    25    1
    15    24    26   ar
    16    26    27   ar
    17     6     7    1
    18     7     8    2
    19     7     9   am
    20     9    29    1
    21    29    30    1
    22    30    31   ar
    23    31    32   ar
    24    32    33   ar
    25    33    34   ar
    26    34    35   ar
    27    35    40    1
    28    40    41   ar
    29    41    42   ar
    30    42    43   ar
    31    43    46    1
    32    46    47   am
    33    47    48    2
    34    47    49   am
    35    49    52    1
    36    52    53   ar
    37    53    54   ar
    38    54    55   ar
    39    55    58    1
    40    58    59    1
    41    55    56   ar
    42    56    57   ar
    43    43    44   ar
    44    44    45   ar
    45    35    36   ar
    46    36    37   ar
    47    37    38    1
    48    37    39   ar
    49     9    10    1
    50    11    10    1
    51    11    12    1
    52    12    13   am
    53    13    14    2
    54    13    15   am
    55    15    60    1
    56    60    61    1
    57    61    62   ar
    58    62    63   ar
    59    63    64   ar
    60    64    65   ar
    61    65    66   ar
    62    12     1    1
    63    66    61   ar
    64    11     5    1
    65    27    21   ar
    66    39    30   ar
    67    39    34   ar
    68    45    40   ar
    69    57    52   ar
    70    25    28    1
    71    46    50    1
    72    49    51    1
    73    15    16    1
