@<TRIPOS>MOLECULE
*****
 26 28 0 0 0
SMALL
GASTEIGER

@<TRIPOS>ATOM
      1 C          63.2825   89.9600   12.5983 C.ar    1  UNL1        0.1374
      2 C          64.2209   91.1235   12.4733 C.ar    1  UNL1        0.0612
      3 C          64.8295   91.7315   13.7021 C.ar    1  UNL1        0.1482
      4 C          64.4996   91.1760   15.0559 C.ar    1  UNL1        0.0522
      5 C          63.5613   90.0125   15.1808 C.ar    1  UNL1        0.0625
      6 C          63.2314   89.4570   16.5346 C.3     1  UNL1        0.0522
      7 N          62.9527   89.4045   13.9521 N.ar    1  UNL1       -0.2449
      8 N          62.0993   87.9674   11.4236 N.am    1  UNL1       -0.2646
      9 C          62.6739   89.3520   11.3695 C.2     1  UNL1        0.2684
     10 O          62.6398   90.1285   10.0866 O.2     1  UNL1       -0.2681
     11 H          62.1217   87.4578   12.2657 H       1  UNL1        0.1566
     12 C          62.5001   84.8954    7.2520 C.3     1  UNL1        0.0521
     13 C          61.6911   85.8234    8.1091 C.ar    1  UNL1        0.0608
     14 C          60.2736   86.1433    7.7373 C.ar    1  UNL1        0.0148
     15 C          59.4646   87.0712    8.5943 C.ar    1  UNL1        0.0041
     16 C          60.0732   87.6793    9.8231 C.ar    1  UNL1        0.0345
     17 C          61.4907   87.3594   10.1948 C.ar    1  UNL1        0.1340
     18 N          62.2997   86.4314    9.3378 N.ar    1  UNL1       -0.2348
     19 O          65.7679   92.8951   13.5772 O.3     1  UNL1       -0.4518
     20 C          66.3061   93.2834   12.2320 C.ar    1  UNL1        0.1666
     21 C          66.1199   94.6829   11.7252 C.ar    1  UNL1        0.1364
     22 N          66.6581   95.0712   10.3800 N.ar    1  UNL1       -0.2368
     23 C          67.3826   94.0600    9.5416 C.ar    1  UNL1        0.1286
     24 C          67.5688   92.6606   10.0485 C.ar    1  UNL1        0.1623
     25 F          68.2932   91.6495    9.2101 F       1  UNL1       -0.2024
     26 C          67.0306   92.2723   11.3937 C.ar    1  UNL1        0.0703
@<TRIPOS>BOND
     1    12    13    1
     2    13    14   ar
     3    14    15   ar
     4    15    16   ar
     5    16    17   ar
     6    17     8    1
     7     8     9   am
     8     9    10    2
     9     9     1    1
    10     1     2   ar
    11     2     3   ar
    12     3    19    1
    13    19    20    1
    14    20    21   ar
    15    21    22   ar
    16    22    23   ar
    17    23    24   ar
    18    24    25    1
    19    24    26   ar
    20     3     4   ar
    21     4     5   ar
    22     5     6    1
    23     5     7   ar
    24    17    18   ar
    25    18    13   ar
    26     7     1   ar
    27    26    20   ar
    28     8    11    1
@<TRIPOS>MOLECULE
*****
 26 28 0 0 0
SMALL
GASTEIGER

@<TRIPOS>ATOM
      1 C          61.5783   87.9275   10.9152 C.ar    1  UNL1        0.1374
      2 C          62.6750   88.8398   10.4516 C.ar    1  UNL1        0.0612
      3 C          62.4768   90.3263   10.4816 C.ar    1  UNL1        0.1482
      4 C          61.1819   90.9005   10.9751 C.ar    1  UNL1        0.0522
      5 C          60.0852   89.9882   11.4387 C.ar    1  UNL1        0.0625
      6 C          58.7904   90.5624   11.9322 C.3     1  UNL1        0.0522
      7 N          60.2834   88.5017   11.4088 N.ar    1  UNL1       -0.2449
      8 N          62.6224   85.7759   11.9304 N.am    1  UNL1       -0.2646
      9 C          61.7765   86.4409   10.8853 C.2     1  UNL1        0.2684
     10 O          61.1288   85.6194    9.8103 O.2     1  UNL1       -0.2681
     11 H          63.0475   86.3150   12.6359 H       1  UNL1        0.1566
     12 C          61.9762   81.1051   14.1136 C.3     1  UNL1        0.0521
     13 C          62.4975   81.9539   12.9921 C.ar    1  UNL1        0.0608
     14 C          63.2169   81.3162   11.8407 C.ar    1  UNL1        0.0148
     15 C          63.7381   82.1650   10.7192 C.ar    1  UNL1        0.0041
     16 C          63.5400   83.6516   10.7491 C.ar    1  UNL1        0.0345
     17 C          62.8206   84.2893   11.9004 C.ar    1  UNL1        0.1340
     18 N          62.2993   83.4404   13.0220 N.ar    1  UNL1       -0.2348
     19 O          63.5735   91.2387   10.0179 O.3     1  UNL1       -0.4518
     20 C          64.4232   91.9603   11.0215 C.ar    1  UNL1        0.1666
     21 C          64.4179   91.5279   12.4579 C.ar    1  UNL1        0.1364
     22 N          65.2676   92.2496   13.4615 N.ar    1  UNL1       -0.2368
     23 C          66.1226   93.4036   13.0288 C.ar    1  UNL1        0.1286
     24 C          66.1279   93.8360   11.5925 C.ar    1  UNL1        0.1623
     25 F          66.9829   94.9899   11.1598 F       1  UNL1       -0.2024
     26 C          65.2782   93.1143   10.5889 C.ar    1  UNL1        0.0703
@<TRIPOS>BOND
     1    12    13    1
     2    13    14   ar
     3    14    15   ar
     4    15    16   ar
     5    16    17   ar
     6    17     8    1
     7     8     9   am
     8     9    10    2
     9     9     1    1
    10     1     2   ar
    11     2     3   ar
    12     3    19    1
    13    19    20    1
    14    20    21   ar
    15    21    22   ar
    16    22    23   ar
    17    23    24   ar
    18    24    25    1
    19    24    26   ar
    20     3     4   ar
    21     4     5   ar
    22     5     6    1
    23     5     7   ar
    24    17    18   ar
    25    18    13   ar
    26     7     1   ar
    27    26    20   ar
    28     8    11    1
@<TRIPOS>MOLECULE
*****
 26 28 0 0 0
SMALL
GASTEIGER

@<TRIPOS>ATOM
      1 C          61.5414   87.9453   10.9401 C.ar    1  UNL1        0.1374
      2 C          62.6352   88.8732   10.5013 C.ar    1  UNL1        0.0612
      3 C          62.4220   90.3573   10.5442 C.ar    1  UNL1        0.1482
      4 C          61.1149   90.9135   11.0260 C.ar    1  UNL1        0.0522
      5 C          60.0211   89.9857   11.4648 C.ar    1  UNL1        0.0625
      6 C          58.7140   90.5420   11.9466 C.3     1  UNL1        0.0522
      7 N          60.2343   88.5016   11.4219 N.ar    1  UNL1       -0.2449
      8 N          62.6177   85.7973   11.9289 N.am    1  UNL1       -0.2646
      9 C          61.7546   86.4611   10.8972 C.2     1  UNL1        0.2684
     10 O          61.1048   85.6408    9.8226 O.2     1  UNL1       -0.2681
     11 H          63.0442   86.3357   12.6342 H       1  UNL1        0.1566
     12 C          62.0129   81.1005   14.0678 C.3     1  UNL1        0.0521
     13 C          62.5285   81.9648   12.9555 C.ar    1  UNL1        0.0608
     14 C          63.2573   81.3448   11.8003 C.ar    1  UNL1        0.0148
     15 C          63.7729   82.2091   10.6880 C.ar    1  UNL1        0.0041
     16 C          63.5597   83.6932   10.7308 C.ar    1  UNL1        0.0345
     17 C          62.8309   84.3131   11.8860 C.ar    1  UNL1        0.1340
     18 N          62.3153   83.4489   12.9983 N.ar    1  UNL1       -0.2348
     19 O          63.5159   91.2852   10.1054 O.3     1  UNL1       -0.4518
     20 C          64.4499   91.8761   11.1195 C.ar    1  UNL1        0.1666
     21 C          65.3633   93.0011   10.7320 C.ar    1  UNL1        0.1364
     22 N          66.2974   93.5920   11.7461 N.ar    1  UNL1       -0.2368
     23 C          66.3180   93.0579   13.1477 C.ar    1  UNL1        0.1286
     24 C          65.4046   91.9330   13.5351 C.ar    1  UNL1        0.1623
     25 F          65.4252   91.3989   14.9366 F       1  UNL1       -0.2024
     26 C          64.4705   91.3421   12.5210 C.ar    1  UNL1        0.0703
@<TRIPOS>BOND
     1    12    13    1
     2    13    14   ar
     3    14    15   ar
     4    15    16   ar
     5    16    17   ar
     6    17     8    1
     7     8     9   am
     8     9    10    2
     9     9     1    1
    10     1     2   ar
    11     2     3   ar
    12     3    19    1
    13    19    20    1
    14    20    21   ar
    15    21    22   ar
    16    22    23   ar
    17    23    24   ar
    18    24    25    1
    19    24    26   ar
    20     3     4   ar
    21     4     5   ar
    22     5     6    1
    23     5     7   ar
    24    17    18   ar
    25    18    13   ar
    26     7     1   ar
    27    26    20   ar
    28     8    11    1
@<TRIPOS>MOLECULE
*****
 26 28 0 0 0
SMALL
GASTEIGER

@<TRIPOS>ATOM
      1 C          61.7703   87.8525   11.3465 C.ar    1  UNL1        0.1374
      2 C          63.0029   88.6930   11.5022 C.ar    1  UNL1        0.0612
      3 C          62.8813   90.1784   11.6713 C.ar    1  UNL1        0.1482
      4 C          61.5271   90.8234   11.6848 C.ar    1  UNL1        0.0522
      5 C          60.2945   89.9829   11.5291 C.ar    1  UNL1        0.0625
      6 C          58.9403   90.6279   11.5425 C.3     1  UNL1        0.0522
      7 N          60.4161   88.4975   11.3599 N.ar    1  UNL1       -0.2449
      8 N          62.7539   85.5735   12.1139 N.am    1  UNL1       -0.2646
      9 C          61.8919   86.3670   11.1773 C.2     1  UNL1        0.2684
     10 O          61.1513   85.6750   10.0715 O.2     1  UNL1       -0.2681
     11 H          63.2400   86.0277   12.8397 H       1  UNL1        0.1566
     12 C          61.8370   80.7582   13.8379 C.3     1  UNL1        0.0521
     13 C          62.4170   81.6804   12.8067 C.ar    1  UNL1        0.0608
     14 C          63.1186   81.1171   11.6065 C.ar    1  UNL1        0.0148
     15 C          63.6985   82.0393   10.5754 C.ar    1  UNL1        0.0041
     16 C          63.5770   83.5248   10.7445 C.ar    1  UNL1        0.0345
     17 C          62.8755   84.0880   11.9447 C.ar    1  UNL1        0.1340
     18 N          62.2955   83.1658   12.9759 N.ar    1  UNL1       -0.2348
     19 O          64.1139   91.0190   11.8270 O.3     1  UNL1       -0.4518
     20 C          64.5579   91.4534   13.1924 C.ar    1  UNL1        0.1666
     21 C          65.6451   92.4767   13.3372 C.ar    1  UNL1        0.1364
     22 N          66.0891   92.9111   14.7026 N.ar    1  UNL1       -0.2368
     23 C          65.4457   92.3223   15.9231 C.ar    1  UNL1        0.1286
     24 C          64.3585   91.2992   15.7782 C.ar    1  UNL1        0.1623
     25 F          63.7153   90.7104   16.9986 F       1  UNL1       -0.2024
     26 C          63.9146   90.8647   14.4128 C.ar    1  UNL1        0.0703
@<TRIPOS>BOND
     1    12    13    1
     2    13    14   ar
     3    14    15   ar
     4    15    16   ar
     5    16    17   ar
     6    17     8    1
     7     8     9   am
     8     9    10    2
     9     9     1    1
    10     1     2   ar
    11     2     3   ar
    12     3    19    1
    13    19    20    1
    14    20    21   ar
    15    21    22   ar
    16    22    23   ar
    17    23    24   ar
    18    24    25    1
    19    24    26   ar
    20     3     4   ar
    21     4     5   ar
    22     5     6    1
    23     5     7   ar
    24    17    18   ar
    25    18    13   ar
    26     7     1   ar
    27    26    20   ar
    28     8    11    1
@<TRIPOS>MOLECULE
*****
 26 28 0 0 0
SMALL
GASTEIGER

@<TRIPOS>ATOM
      1 C          64.0755   88.2938   15.0661 C.ar    1  UNL1        0.1374
      2 C          64.5848   87.0550   14.3909 C.ar    1  UNL1        0.0612
      3 C          64.3732   85.7132   15.0271 C.ar    1  UNL1        0.1482
      4 C          63.6523   85.6102   16.3385 C.ar    1  UNL1        0.0522
      5 C          63.1430   86.8490   17.0137 C.ar    1  UNL1        0.0625
      6 C          62.4221   86.7460   18.3251 C.3     1  UNL1        0.0522
      7 N          63.3546   88.1908   16.3775 N.ar    1  UNL1       -0.2449
      8 N          65.6341   90.2923   14.4945 N.am    1  UNL1       -0.2646
      9 C          64.2870   89.6357   14.4299 C.2     1  UNL1        0.2684
     10 O          63.1515   90.3209   13.7292 O.2     1  UNL1       -0.2681
     11 H          66.3794   89.8426   14.9544 H       1  UNL1        0.1566
     12 C          65.3672   93.3914   10.3322 C.3     1  UNL1        0.0521
     13 C          65.7122   93.1837   11.7771 C.ar    1  UNL1        0.0608
     14 C          66.2687   94.3178   12.5859 C.ar    1  UNL1        0.0148
     15 C          66.6137   94.1100   14.0308 C.ar    1  UNL1        0.0041
     16 C          66.4022   92.7682   14.6670 C.ar    1  UNL1        0.0345
     17 C          65.8457   91.6342   13.8583 C.ar    1  UNL1        0.1340
     18 N          65.5006   91.8419   12.4133 N.ar    1  UNL1       -0.2348
     19 O          64.8826   84.4743   14.3520 O.3     1  UNL1       -0.4518
     20 C          63.9230   83.4005   13.9323 C.ar    1  UNL1        0.1666
     21 C          62.9432   82.8418   14.9213 C.ar    1  UNL1        0.1364
     22 N          61.9837   81.7680   14.5016 N.ar    1  UNL1       -0.2368
     23 C          62.0039   81.2528   13.0929 C.ar    1  UNL1        0.1286
     24 C          62.9837   81.8114   12.1041 C.ar    1  UNL1        0.1623
     25 F          63.0040   81.2961   10.6955 F       1  UNL1       -0.2024
     26 C          63.9433   82.8852   12.5237 C.ar    1  UNL1        0.0703
@<TRIPOS>BOND
     1    12    13    1
     2    13    14   ar
     3    14    15   ar
     4    15    16   ar
     5    16    17   ar
     6    17     8    1
     7     8     9   am
     8     9    10    2
     9     9     1    1
    10     1     2   ar
    11     2     3   ar
    12     3    19    1
    13    19    20    1
    14    20    21   ar
    15    21    22   ar
    16    22    23   ar
    17    23    24   ar
    18    24    25    1
    19    24    26   ar
    20     3     4   ar
    21     4     5   ar
    22     5     6    1
    23     5     7   ar
    24    17    18   ar
    25    18    13   ar
    26     7     1   ar
    27    26    20   ar
    28     8    11    1
@<TRIPOS>MOLECULE
*****
 26 28 0 0 0
SMALL
GASTEIGER

@<TRIPOS>ATOM
      1 C          63.1310   88.3819   12.3940 C.ar    1  UNL1        0.1374
      2 C          63.3710   89.7943   12.8382 C.ar    1  UNL1        0.0612
      3 C          64.0509   90.0633   14.1479 C.ar    1  UNL1        0.1482
      4 C          64.4907   88.9199   15.0134 C.ar    1  UNL1        0.0522
      5 C          64.2507   87.5075   14.5692 C.ar    1  UNL1        0.0625
      6 C          64.6906   86.3640   15.4347 C.3     1  UNL1        0.0522
      7 N          63.5709   87.2384   13.2595 N.ar    1  UNL1       -0.2449
      8 N          61.7523   86.8052   10.8567 N.am    1  UNL1       -0.2646
      9 C          62.4511   88.1128   11.0843 C.2     1  UNL1        0.2684
     10 O          62.4700   89.1514   10.0021 O.2     1  UNL1       -0.2681
     11 H          61.7399   86.1235   11.5669 H       1  UNL1        0.1566
     12 C          61.7381   84.5566    6.1722 C.3     1  UNL1        0.0521
     13 C          61.0653   85.4118    7.2047 C.ar    1  UNL1        0.0608
     14 C          59.7127   85.9979    6.9275 C.ar    1  UNL1        0.0148
     15 C          59.0399   86.8531    7.9600 C.ar    1  UNL1        0.0041
     16 C          59.7198   87.1222    9.2697 C.ar    1  UNL1        0.0345
     17 C          61.0724   86.5361    9.5469 C.ar    1  UNL1        0.1340
     18 N          61.7451   85.6809    8.5144 N.ar    1  UNL1       -0.2348
     19 O          64.2909   91.4758   14.5922 O.3     1  UNL1       -0.4518
     20 C          65.6878   91.9487   14.8661 C.ar    1  UNL1        0.1666
     21 C          65.9873   92.7171   16.1191 C.ar    1  UNL1        0.1364
     22 N          67.3842   93.1900   16.3930 N.ar    1  UNL1       -0.2368
     23 C          68.4816   92.8946   15.4139 C.ar    1  UNL1        0.1286
     24 C          68.1820   92.1263   14.1609 C.ar    1  UNL1        0.1623
     25 F          69.2793   91.8309   13.1819 F       1  UNL1       -0.2024
     26 C          66.7851   91.6534   13.8870 C.ar    1  UNL1        0.0703
@<TRIPOS>BOND
     1    12    13    1
     2    13    14   ar
     3    14    15   ar
     4    15    16   ar
     5    16    17   ar
     6    17     8    1
     7     8     9   am
     8     9    10    2
     9     9     1    1
    10     1     2   ar
    11     2     3   ar
    12     3    19    1
    13    19    20    1
    14    20    21   ar
    15    21    22   ar
    16    22    23   ar
    17    23    24   ar
    18    24    25    1
    19    24    26   ar
    20     3     4   ar
    21     4     5   ar
    22     5     6    1
    23     5     7   ar
    24    17    18   ar
    25    18    13   ar
    26     7     1   ar
    27    26    20   ar
    28     8    11    1
@<TRIPOS>MOLECULE
*****
 26 28 0 0 0
SMALL
GASTEIGER

@<TRIPOS>ATOM
      1 C          63.2230   90.2373   11.5836 C.ar    1  UNL1        0.1374
      2 C          63.1929   89.7734   13.0097 C.ar    1  UNL1        0.0612
      3 C          64.0245   90.4730   14.0436 C.ar    1  UNL1        0.1482
      4 C          64.8863   91.6364   13.6513 C.ar    1  UNL1        0.0522
      5 C          64.9164   92.1002   12.2252 C.ar    1  UNL1        0.0625
      6 C          65.7782   93.2636   11.8329 C.3     1  UNL1        0.0522
      7 N          64.0848   91.4006   11.1913 N.ar    1  UNL1       -0.2449
      8 N          62.3104   88.0400   10.5400 N.am    1  UNL1       -0.2646
      9 C          62.3913   89.5377   10.5496 C.2     1  UNL1        0.2684
     10 O          61.6407   90.3360    9.5253 O.2     1  UNL1       -0.2681
     11 H          62.8031   87.5160   11.2123 H       1  UNL1        0.1566
     12 C          61.9210   84.6657    6.6077 C.3     1  UNL1        0.0521
     13 C          61.2840   85.6533    7.5399 C.ar    1  UNL1        0.0608
     14 C          59.8155   85.9413    7.4382 C.ar    1  UNL1        0.0148
     15 C          59.1786   86.9289    8.3704 C.ar    1  UNL1        0.0041
     16 C          60.0102   87.6284    9.4043 C.ar    1  UNL1        0.0345
     17 C          61.4787   87.3404    9.5060 C.ar    1  UNL1        0.1340
     18 N          62.1156   86.3528    8.5738 N.ar    1  UNL1       -0.2348
     19 O          63.9944   90.0091   15.4698 O.3     1  UNL1       -0.4518
     20 C          63.8036   88.5543   15.7814 C.ar    1  UNL1        0.1666
     21 C          62.9579   88.1423   16.9498 C.ar    1  UNL1        0.1364
     22 N          62.7670   86.6874   17.2614 N.ar    1  UNL1       -0.2368
     23 C          63.4220   85.6447   16.4047 C.ar    1  UNL1        0.1286
     24 C          64.2677   86.0568   15.2364 C.ar    1  UNL1        0.1623
     25 F          64.9225   85.0141   14.3798 F       1  UNL1       -0.2024
     26 C          64.4585   87.5116   14.9248 C.ar    1  UNL1        0.0703
@<TRIPOS>BOND
     1    12    13    1
     2    13    14   ar
     3    14    15   ar
     4    15    16   ar
     5    16    17   ar
     6    17     8    1
     7     8     9   am
     8     9    10    2
     9     9     1    1
    10     1     2   ar
    11     2     3   ar
    12     3    19    1
    13    19    20    1
    14    20    21   ar
    15    21    22   ar
    16    22    23   ar
    17    23    24   ar
    18    24    25    1
    19    24    26   ar
    20     3     4   ar
    21     4     5   ar
    22     5     6    1
    23     5     7   ar
    24    17    18   ar
    25    18    13   ar
    26     7     1   ar
    27    26    20   ar
    28     8    11    1
@<TRIPOS>MOLECULE
*****
 26 28 0 0 0
SMALL
GASTEIGER

@<TRIPOS>ATOM
      1 C          62.3746   89.5857   10.7418 C.ar    1  UNL1        0.1374
      2 C          62.2877   88.3101   11.5262 C.ar    1  UNL1        0.0612
      3 C          61.3429   87.2277   11.0954 C.ar    1  UNL1        0.1482
      4 C          60.4850   87.4208    9.8802 C.ar    1  UNL1        0.0522
      5 C          60.5718   88.6964    9.0958 C.ar    1  UNL1        0.0625
      6 C          59.7139   88.8895    7.8807 C.3     1  UNL1        0.0522
      7 N          61.5166   89.7788    9.5266 N.ar    1  UNL1       -0.2449
      8 N          63.9213   90.6356   12.5460 N.am    1  UNL1       -0.2646
      9 C          63.3194   90.6682   11.1725 C.2     1  UNL1        0.2684
     10 O          63.6623   91.7834   10.2297 O.2     1  UNL1       -0.2681
     11 H          63.6963   89.9037   13.1648 H       1  UNL1        0.1566
     12 C          66.8853   92.8269   16.2085 C.3     1  UNL1        0.0521
     13 C          66.3481   92.8137   14.8080 C.ar    1  UNL1        0.0608
     14 C          66.7558   93.8830   13.8383 C.ar    1  UNL1        0.0148
     15 C          66.2186   93.8699   12.4378 C.ar    1  UNL1        0.0041
     16 C          65.2738   92.7874   12.0071 C.ar    1  UNL1        0.0345
     17 C          64.8662   91.7181   12.9768 C.ar    1  UNL1        0.1340
     18 N          65.4033   91.7313   14.3772 N.ar    1  UNL1       -0.2348
     19 O          61.2560   85.9520   11.8798 O.3     1  UNL1       -0.4518
     20 C          62.4443   85.0405   11.9633 C.ar    1  UNL1        0.1666
     21 C          63.2046   84.9152   13.2503 C.ar    1  UNL1        0.1364
     22 N          64.3929   84.0037   13.3337 N.ar    1  UNL1       -0.2368
     23 C          64.8210   83.2174   12.1301 C.ar    1  UNL1        0.1286
     24 C          64.0607   83.3427   10.8432 C.ar    1  UNL1        0.1623
     25 F          64.4888   82.5564    9.6397 F       1  UNL1       -0.2024
     26 C          62.8724   84.2542   10.7598 C.ar    1  UNL1        0.0703
@<TRIPOS>BOND
     1    12    13    1
     2    13    14   ar
     3    14    15   ar
     4    15    16   ar
     5    16    17   ar
     6    17     8    1
     7     8     9   am
     8     9    10    2
     9     9     1    1
    10     1     2   ar
    11     2     3   ar
    12     3    19    1
    13    19    20    1
    14    20    21   ar
    15    21    22   ar
    16    22    23   ar
    17    23    24   ar
    18    24    25    1
    19    24    26   ar
    20     3     4   ar
    21     4     5   ar
    22     5     6    1
    23     5     7   ar
    24    17    18   ar
    25    18    13   ar
    26     7     1   ar
    27    26    20   ar
    28     8    11    1
@<TRIPOS>MOLECULE
*****
 26 28 0 0 0
SMALL
GASTEIGER

@<TRIPOS>ATOM
      1 C          62.5619   87.9194   11.6102 C.ar    1  UNL1        0.1374
      2 C          63.1423   89.0521   12.4039 C.ar    1  UNL1        0.0612
      3 C          62.8322   90.4698   12.0247 C.ar    1  UNL1        0.1482
      4 C          61.9417   90.7549   10.8518 C.ar    1  UNL1        0.0522
      5 C          61.3613   89.6222   10.0581 C.ar    1  UNL1        0.0625
      6 C          60.4708   89.9072    8.8851 C.3     1  UNL1        0.0522
      7 N          61.6714   88.2044   10.4372 N.ar    1  UNL1       -0.2449
      8 N          62.5145   85.3810   11.0585 N.am    1  UNL1       -0.2646
      9 C          62.8719   86.5016   11.9893 C.2     1  UNL1        0.2684
     10 O          63.5394   86.2044   13.2993 O.2     1  UNL1       -0.2681
     11 H          62.0764   85.5760   10.1987 H       1  UNL1        0.1566
     12 C          61.8649   81.3311   14.2486 C.3     1  UNL1        0.0521
     13 C          62.4997   81.9383   13.0327 C.ar    1  UNL1        0.0608
     14 C          63.4446   81.1276   12.1960 C.ar    1  UNL1        0.0148
     15 C          64.0794   81.7348   10.9801 C.ar    1  UNL1        0.0041
     16 C          63.7694   83.1525   10.6010 C.ar    1  UNL1        0.0345
     17 C          62.8246   83.9631   11.4376 C.ar    1  UNL1        0.1340
     18 N          62.1897   83.3560   12.6535 N.ar    1  UNL1       -0.2348
     19 O          63.4126   91.6026   12.8185 O.3     1  UNL1       -0.4518
     20 C          64.9006   91.7683   12.9112 C.ar    1  UNL1        0.1666
     21 C          65.6653   92.3388   11.7537 C.ar    1  UNL1        0.1364
     22 N          67.1532   92.5045   11.8464 N.ar    1  UNL1       -0.2368
     23 C          67.8764   92.0997   13.0968 C.ar    1  UNL1        0.1286
     24 C          67.1117   91.5293   14.2542 C.ar    1  UNL1        0.1623
     25 F          67.8349   91.1246   15.5045 F       1  UNL1       -0.2024
     26 C          65.6238   91.3636   14.1615 C.ar    1  UNL1        0.0703
@<TRIPOS>BOND
     1    12    13    1
     2    13    14   ar
     3    14    15   ar
     4    15    16   ar
     5    16    17   ar
     6    17     8    1
     7     8     9   am
     8     9    10    2
     9     9     1    1
    10     1     2   ar
    11     2     3   ar
    12     3    19    1
    13    19    20    1
    14    20    21   ar
    15    21    22   ar
    16    22    23   ar
    17    23    24   ar
    18    24    25    1
    19    24    26   ar
    20     3     4   ar
    21     4     5   ar
    22     5     6    1
    23     5     7   ar
    24    17    18   ar
    25    18    13   ar
    26     7     1   ar
    27    26    20   ar
    28     8    11    1
