@<TRIPOS>MOLECULE
*****
 32 35 0 0 0
SMALL
GASTEIGER

@<TRIPOS>ATOM
      1 C          62.9713   89.2807   12.0905 C.ar    1  UNL1        0.1581
      2 C          63.9315   89.5039   13.2211 C.ar    1  UNL1        0.0694
      3 C          64.8648   90.6778   13.1917 C.ar    1  UNL1        0.1620
      4 F          65.8250   90.9010   14.3223 F       1  UNL1       -0.2026
      5 C          64.8378   91.6285   12.0318 C.ar    1  UNL1        0.1535
      6 C          63.8776   91.4053   10.9013 C.ar    1  UNL1        0.0370
      7 C          62.9443   90.2314   10.9306 C.ar    1  UNL1        0.0936
      8 CL         61.9841   90.0082    9.8001 Cl      1  UNL1       -0.0790
      9 S          65.7711   92.8025   12.0024 S.O2    1  UNL1        0.0769
     10 O          66.2446   92.3919   10.6396 O.2     1  UNL1       -0.1498
     11 O          65.2976   93.2130   13.3652 O.2     1  UNL1       -0.1498
     12 N          66.7044   93.9764   11.9730 N.pl3   1  UNL1       -0.1984
     13 H          67.3319   94.1251   12.7169 H       1  UNL1        0.1753
     14 C          66.6815   94.9238   10.8103 C.ar    1  UNL1        0.1542
     15 C          65.5976   95.9135   10.5006 C.ar    1  UNL1        0.0725
     16 S          65.9846   96.6492    9.2520 S.2     1  UNL1       -0.0625
     17 C          67.3077   96.1143    8.7901 C.ar    1  UNL1        0.1360
     18 N          67.7384   95.0479    9.7531 N.ar    1  UNL1       -0.2203
     19 O          62.0380   88.1067   12.1199 O.3     1  UNL1       -0.4525
     20 C          62.2865   85.7440   11.0682 C.ar    1  UNL1        0.0527
     21 C          62.8367   84.3496   11.1217 C.ar    1  UNL1        0.0159
     22 C          63.6888   83.9235   12.2803 C.ar    1  UNL1        0.0579
     23 CL         64.2390   82.5291   12.3338 Cl      1  UNL1       -0.0822
     24 C          63.9906   84.8918   13.3854 C.ar    1  UNL1        0.0145
     25 C          63.4403   86.2862   13.3320 C.ar    1  UNL1        0.0384
     26 C          62.5883   86.7123   12.1734 C.ar    1  UNL1        0.1467
     27 C          62.8927   85.1441    7.9182 C.3     1  UNL1        0.1537
     28 N          61.7131   85.8944    8.4617 N.ar    1  UNL1       -0.2487
     29 N          60.6050   86.5008    7.6528 N.ar    1  UNL1       -0.1676
     30 C          59.6414   87.1513    8.6007 C.ar    1  UNL1        0.1217
     31 C          60.1540   86.9470    9.9954 C.ar    1  UNL1        0.0413
     32 C          61.4344   86.1702    9.9096 C.ar    1  UNL1        0.0825
@<TRIPOS>BOND
     1    27    28    1
     2    28    29   ar
     3    29    30   ar
     4    30    31   ar
     5    31    32   ar
     6    32    20    1
     7    20    21   ar
     8    21    22   ar
     9    22    23    1
    10    22    24   ar
    11    24    25   ar
    12    25    26   ar
    13    26    19    1
    14    19     1    1
    15     1     2   ar
    16     2     3   ar
    17     3     4    1
    18     3     5   ar
    19     5     9    1
    20     9    10    2
    21     9    11    2
    22     9    12    1
    23    12    14    1
    24    14    15   ar
    25    15    16   ar
    26    16    17   ar
    27    17    18   ar
    28     5     6   ar
    29     6     7   ar
    30     7     8    1
    31    32    28   ar
    32    26    20   ar
    33     7     1   ar
    34    18    14   ar
    35    12    13    1
@<TRIPOS>MOLECULE
*****
 32 35 0 0 0
SMALL
GASTEIGER

@<TRIPOS>ATOM
      1 C          63.1427   89.3649   12.1992 C.ar    1  UNL1        0.1581
      2 C          63.0706   90.3306   11.0536 C.ar    1  UNL1        0.0694
      3 C          63.9658   91.5340   11.0297 C.ar    1  UNL1        0.1620
      4 F          63.8938   92.4997    9.8842 F       1  UNL1       -0.2026
      5 C          64.9329   91.7717   12.1515 C.ar    1  UNL1        0.1535
      6 C          65.0049   90.8060   13.2970 C.ar    1  UNL1        0.0370
      7 C          64.1098   89.6027   13.3209 C.ar    1  UNL1        0.0936
      8 CL         64.1818   88.6370   14.4665 Cl      1  UNL1       -0.0790
      9 S          65.8281   92.9751   12.1276 S.O2    1  UNL1        0.0769
     10 O          66.2858   92.6072   10.7473 O.2     1  UNL1       -0.1498
     11 O          65.3703   93.3430   13.5078 O.2     1  UNL1       -0.1498
     12 N          66.7232   94.1785   12.1037 N.pl3   1  UNL1       -0.1984
     13 H          67.3333   94.3532   12.8563 H       1  UNL1        0.1753
     14 C          66.6888   95.1157   10.9329 C.ar    1  UNL1        0.1542
     15 C          65.6345   96.1472   10.6600 C.ar    1  UNL1        0.0725
     16 S          65.9967   96.8549    9.3880 S.2     1  UNL1       -0.0625
     17 C          67.2749   96.2609    8.8749 C.ar    1  UNL1        0.1360
     18 N          67.7026   95.1860    9.8297 N.ar    1  UNL1       -0.2203
     19 O          62.2475   88.1615   12.2231 O.3     1  UNL1       -0.4525
     20 C          61.4781   86.4436   10.4324 C.ar    1  UNL1        0.0527
     21 C          60.6465   86.1035    9.2313 C.ar    1  UNL1        0.0159
     22 C          59.7527   87.1412    8.6197 C.ar    1  UNL1        0.0579
     23 CL         58.9210   86.8012    7.4185 Cl      1  UNL1       -0.0822
     24 C          59.6905   88.5191    9.2092 C.ar    1  UNL1        0.0145
     25 C          60.5221   88.8592   10.4104 C.ar    1  UNL1        0.0384
     26 C          61.4159   87.8214   11.0219 C.ar    1  UNL1        0.1467
     27 C          63.4524   84.4146    8.8091 C.3     1  UNL1        0.1537
     28 N          63.2794   84.4732   10.2979 N.ar    1  UNL1       -0.2487
     29 N          63.9835   83.6094   11.3019 N.ar    1  UNL1       -0.1676
     30 C          63.5112   84.0082   12.6687 C.ar    1  UNL1        0.1217
     31 C          62.5152   85.1183   12.5093 C.ar    1  UNL1        0.0413
     32 C          62.3719   85.4057   11.0441 C.ar    1  UNL1        0.0825
@<TRIPOS>BOND
     1    27    28    1
     2    28    29   ar
     3    29    30   ar
     4    30    31   ar
     5    31    32   ar
     6    32    20    1
     7    20    21   ar
     8    21    22   ar
     9    22    23    1
    10    22    24   ar
    11    24    25   ar
    12    25    26   ar
    13    26    19    1
    14    19     1    1
    15     1     2   ar
    16     2     3   ar
    17     3     4    1
    18     3     5   ar
    19     5     9    1
    20     9    10    2
    21     9    11    2
    22     9    12    1
    23    12    14    1
    24    14    15   ar
    25    15    16   ar
    26    16    17   ar
    27    17    18   ar
    28     5     6   ar
    29     6     7   ar
    30     7     8    1
    31    32    28   ar
    32    26    20   ar
    33     7     1   ar
    34    18    14   ar
    35    12    13    1
@<TRIPOS>MOLECULE
*****
 32 35 0 0 0
SMALL
GASTEIGER

@<TRIPOS>ATOM
      1 C          62.6719   88.3659   12.0292 C.ar    1  UNL1        0.1581
      2 C          63.6365   88.7304   13.1187 C.ar    1  UNL1        0.0694
      3 C          64.3424   90.0535   13.0837 C.ar    1  UNL1        0.1620
      4 F          65.3069   90.4180   14.1731 F       1  UNL1       -0.2026
      5 C          64.0837   91.0120   11.9592 C.ar    1  UNL1        0.1535
      6 C          63.1192   90.6475   10.8699 C.ar    1  UNL1        0.0370
      7 C          62.4133   89.3245   10.9049 C.ar    1  UNL1        0.0936
      8 CL         61.4487   88.9600    9.8154 Cl      1  UNL1       -0.0790
      9 S          64.7897   92.3351   11.9242 S.O2    1  UNL1        0.0769
     10 O          64.8710   92.3313   13.4220 O.2     1  UNL1       -0.1498
     11 O          64.7083   92.3389   10.4265 O.2     1  UNL1       -0.1498
     12 N          65.4956   93.6581   11.8892 N.pl3   1  UNL1       -0.1984
     13 H          65.3236   94.3266   12.5913 H       1  UNL1        0.1753
     14 C          66.4635   93.9628   10.7845 C.ar    1  UNL1        0.1542
     15 C          66.4416   95.1760    9.9027 C.ar    1  UNL1        0.0725
     16 S          67.5878   95.0708    8.9408 S.2     1  UNL1       -0.0625
     17 C          68.3181   93.7924    9.2282 C.ar    1  UNL1        0.1360
     18 N          67.6233   93.1077   10.3677 N.ar    1  UNL1       -0.2203
     19 O          61.9660   87.0429   12.0642 O.3     1  UNL1       -0.4525
     20 C          63.3094   84.8391   12.3617 C.ar    1  UNL1        0.0527
     21 C          63.9616   83.6252   11.7692 C.ar    1  UNL1        0.0159
     22 C          63.9224   83.4012   10.2866 C.ar    1  UNL1        0.0579
     23 CL         64.5746   82.1872    9.6940 Cl      1  UNL1       -0.0822
     24 C          63.2312   84.3911    9.3965 C.ar    1  UNL1        0.0145
     25 C          62.5791   85.6049    9.9890 C.ar    1  UNL1        0.0384
     26 C          62.6182   85.8289   11.4716 C.ar    1  UNL1        0.1467
     27 C          61.8006   83.0252   14.6163 C.3     1  UNL1        0.1537
     28 N          62.6550   84.2294   14.8807 N.ar    1  UNL1       -0.2487
     29 N          62.9658   84.8112   16.2279 N.ar    1  UNL1       -0.1676
     30 C          63.8515   86.0046   16.0242 C.ar    1  UNL1        0.1217
     31 C          64.0880   86.1603   14.5511 C.ar    1  UNL1        0.0413
     32 C          63.3485   85.0631   13.8444 C.ar    1  UNL1        0.0825
@<TRIPOS>BOND
     1    27    28    1
     2    28    29   ar
     3    29    30   ar
     4    30    31   ar
     5    31    32   ar
     6    32    20    1
     7    20    21   ar
     8    21    22   ar
     9    22    23    1
    10    22    24   ar
    11    24    25   ar
    12    25    26   ar
    13    26    19    1
    14    19     1    1
    15     1     2   ar
    16     2     3   ar
    17     3     4    1
    18     3     5   ar
    19     5     9    1
    20     9    10    2
    21     9    11    2
    22     9    12    1
    23    12    14    1
    24    14    15   ar
    25    15    16   ar
    26    16    17   ar
    27    17    18   ar
    28     5     6   ar
    29     6     7   ar
    30     7     8    1
    31    32    28   ar
    32    26    20   ar
    33     7     1   ar
    34    18    14   ar
    35    12    13    1
@<TRIPOS>MOLECULE
*****
 32 35 0 0 0
SMALL
GASTEIGER

@<TRIPOS>ATOM
      1 C          63.3258   89.3916   12.4947 C.ar    1  UNL1        0.1581
      2 C          63.2323   90.2985   11.3035 C.ar    1  UNL1        0.0694
      3 C          64.0577   91.5497   11.2468 C.ar    1  UNL1        0.1620
      4 F          63.9642   92.4565   10.0557 F       1  UNL1       -0.2026
      5 C          64.9766   91.8940   12.3814 C.ar    1  UNL1        0.1535
      6 C          65.0701   90.9872   13.5725 C.ar    1  UNL1        0.0370
      7 C          64.2447   89.7360   13.6292 C.ar    1  UNL1        0.0936
      8 CL         64.3382   88.8291   14.8204 Cl      1  UNL1       -0.0790
      9 S          65.8019   93.1453   12.3247 S.O2    1  UNL1        0.0769
     10 O          65.4954   93.4129   13.7685 O.2     1  UNL1       -0.1498
     11 O          66.1085   92.8776   10.8810 O.2     1  UNL1       -0.1498
     12 N          66.6273   94.3965   12.2681 N.pl3   1  UNL1       -0.1984
     13 H          67.1743   94.6609   13.0427 H       1  UNL1        0.1753
     14 C          66.6192   95.2449   11.0310 C.ar    1  UNL1        0.1542
     15 C          65.5516   96.2233   10.6399 C.ar    1  UNL1        0.0725
     16 S          65.9498   96.8469    9.3351 S.2     1  UNL1       -0.0625
     17 C          67.2637   96.2540    8.9199 C.ar    1  UNL1        0.1360
     18 N          67.6773   95.2639    9.9680 N.ar    1  UNL1       -0.2203
     19 O          62.5005   88.1404   12.5514 O.3     1  UNL1       -0.4525
     20 C          62.7902   85.7891   11.4848 C.ar    1  UNL1        0.0527
     21 C          62.7134   84.8866   10.2892 C.ar    1  UNL1        0.0159
     22 C          62.2698   85.4328    8.9645 C.ar    1  UNL1        0.0579
     23 CL         62.1928   84.5302    7.7688 Cl      1  UNL1       -0.0822
     24 C          61.9031   86.8815    8.8354 C.ar    1  UNL1        0.0145
     25 C          61.9800   87.7841   10.0310 C.ar    1  UNL1        0.0384
     26 C          62.4236   87.2378   11.3557 C.ar    1  UNL1        0.1467
     27 C          62.4078   82.7174   12.5185 C.3     1  UNL1        0.1537
     28 N          63.0580   83.8310   13.2847 N.ar    1  UNL1       -0.2487
     29 N          63.6467   83.7282   14.6605 N.ar    1  UNL1       -0.1676
     30 C          64.1863   85.0766   15.0358 C.ar    1  UNL1        0.1217
     31 C          63.9312   86.0127   13.8918 C.ar    1  UNL1        0.0413
     32 C          63.2339   85.2429   12.8096 C.ar    1  UNL1        0.0825
@<TRIPOS>BOND
     1    27    28    1
     2    28    29   ar
     3    29    30   ar
     4    30    31   ar
     5    31    32   ar
     6    32    20    1
     7    20    21   ar
     8    21    22   ar
     9    22    23    1
    10    22    24   ar
    11    24    25   ar
    12    25    26   ar
    13    26    19    1
    14    19     1    1
    15     1     2   ar
    16     2     3   ar
    17     3     4    1
    18     3     5   ar
    19     5     9    1
    20     9    10    2
    21     9    11    2
    22     9    12    1
    23    12    14    1
    24    14    15   ar
    25    15    16   ar
    26    16    17   ar
    27    17    18   ar
    28     5     6   ar
    29     6     7   ar
    30     7     8    1
    31    32    28   ar
    32    26    20   ar
    33     7     1   ar
    34    18    14   ar
    35    12    13    1
@<TRIPOS>MOLECULE
*****
 32 35 0 0 0
SMALL
GASTEIGER

@<TRIPOS>ATOM
      1 C          62.5262   88.6958   11.8670 C.ar    1  UNL1        0.1581
      2 C          63.4233   88.6633   13.0688 C.ar    1  UNL1        0.0694
      3 C          64.3150   89.8310   13.3710 C.ar    1  UNL1        0.1620
      4 F          65.2120   89.7985   14.5728 F       1  UNL1       -0.2026
      5 C          64.3096   91.0313   12.4713 C.ar    1  UNL1        0.1535
      6 C          63.4126   91.0638   11.2696 C.ar    1  UNL1        0.0370
      7 C          62.5209   89.8961   10.9674 C.ar    1  UNL1        0.0936
      8 CL         61.6239   89.9287    9.7656 Cl      1  UNL1       -0.0790
      9 S          65.2013   92.1991   12.7735 S.O2    1  UNL1        0.0769
     10 O          65.6269   92.2461   11.3359 O.2     1  UNL1       -0.1498
     11 O          64.7756   92.1520   14.2111 O.2     1  UNL1       -0.1498
     12 N          66.0929   93.3668   13.0757 N.pl3   1  UNL1       -0.1984
     13 H          65.8991   94.2487   12.6832 H       1  UNL1        0.1753
     14 C          67.2799   93.1909   13.9758 C.ar    1  UNL1        0.1542
     15 C          67.4699   93.8301   15.3195 C.ar    1  UNL1        0.0725
     16 S          68.7926   93.3792   15.8644 S.2     1  UNL1       -0.0625
     17 C          69.4202   92.4613   14.8575 C.ar    1  UNL1        0.1360
     18 N          68.4853   92.3450   13.6903 N.ar    1  UNL1       -0.2203
     19 O          61.6346   87.5281   11.5648 O.3     1  UNL1       -0.4525
     20 C          61.9154   85.3864   10.1210 C.ar    1  UNL1        0.0527
     21 C          62.5073   84.0227    9.9214 C.ar    1  UNL1        0.0159
     22 C          63.4104   83.4369   10.9660 C.ar    1  UNL1        0.0579
     23 CL         64.0024   82.0731   10.7664 Cl      1  UNL1       -0.0822
     24 C          63.7215   84.2148   12.2102 C.ar    1  UNL1        0.0145
     25 C          63.1296   85.5785   12.4098 C.ar    1  UNL1        0.0384
     26 C          62.2266   86.1643   11.3652 C.ar    1  UNL1        0.1467
     27 C          62.1285   84.8884    6.9028 C.3     1  UNL1        0.1537
     28 N          61.1103   85.7434    7.5972 N.ar    1  UNL1       -0.2487
     29 N          60.0112   86.5196    6.9342 N.ar    1  UNL1       -0.1676
     30 C          59.2339   87.2283    8.0037 C.ar    1  UNL1        0.1217
     31 C          59.8526   86.8900    9.3276 C.ar    1  UNL1        0.0413
     32 C          61.0123   85.9723    9.0764 C.ar    1  UNL1        0.0825
@<TRIPOS>BOND
     1    27    28    1
     2    28    29   ar
     3    29    30   ar
     4    30    31   ar
     5    31    32   ar
     6    32    20    1
     7    20    21   ar
     8    21    22   ar
     9    22    23    1
    10    22    24   ar
    11    24    25   ar
    12    25    26   ar
    13    26    19    1
    14    19     1    1
    15     1     2   ar
    16     2     3   ar
    17     3     4    1
    18     3     5   ar
    19     5     9    1
    20     9    10    2
    21     9    11    2
    22     9    12    1
    23    12    14    1
    24    14    15   ar
    25    15    16   ar
    26    16    17   ar
    27    17    18   ar
    28     5     6   ar
    29     6     7   ar
    30     7     8    1
    31    32    28   ar
    32    26    20   ar
    33     7     1   ar
    34    18    14   ar
    35    12    13    1
@<TRIPOS>MOLECULE
*****
 32 35 0 0 0
SMALL
GASTEIGER

@<TRIPOS>ATOM
      1 C          62.6427   88.0608   12.1960 C.ar    1  UNL1        0.1581
      2 C          63.5577   88.1951   13.3771 C.ar    1  UNL1        0.0694
      3 C          64.3296   89.4640   13.5873 C.ar    1  UNL1        0.1620
      4 F          65.2446   89.5983   14.7682 F       1  UNL1       -0.2026
      5 C          64.1864   90.5985   12.6165 C.ar    1  UNL1        0.1535
      6 C          63.2714   90.4641   11.4355 C.ar    1  UNL1        0.0370
      7 C          62.4995   89.1953   11.2253 C.ar    1  UNL1        0.0936
      8 CL         61.5845   89.0609   10.0443 Cl      1  UNL1       -0.0790
      9 S          64.9583   91.8674   12.8267 S.O2    1  UNL1        0.0769
     10 O          64.5007   91.9091   14.2546 O.2     1  UNL1       -0.1498
     11 O          65.4158   91.8256   11.3988 O.2     1  UNL1       -0.1498
     12 N          65.7301   93.1363   13.0369 N.pl3   1  UNL1       -0.1984
     13 H          65.4728   93.9547   12.5541 H       1  UNL1        0.1753
     14 C          66.8941   93.1581   13.9828 C.ar    1  UNL1        0.1542
     15 C          67.9622   92.1105   14.0908 C.ar    1  UNL1        0.0725
     16 S          68.9226   92.5362   15.1615 S.2     1  UNL1       -0.0625
     17 C          68.4480   93.8470   15.7153 C.ar    1  UNL1        0.1360
     18 N          67.1943   94.2313   14.9868 N.ar    1  UNL1       -0.2203
     19 O          61.8708   86.7919   11.9858 O.3     1  UNL1       -0.4525
     20 C          63.1485   84.5555   12.3269 C.ar    1  UNL1        0.0527
     21 C          63.8308   83.3488   11.7540 C.ar    1  UNL1        0.0159
     22 C          63.9178   83.1717   10.2671 C.ar    1  UNL1        0.0579
     23 CL         64.6002   81.9649    9.6941 Cl      1  UNL1       -0.0822
     24 C          63.3225   84.2013    9.3530 C.ar    1  UNL1        0.0145
     25 C          62.6402   85.4080    9.9259 C.ar    1  UNL1        0.0384
     26 C          62.5532   85.5851   11.4128 C.ar    1  UNL1        0.1467
     27 C          65.6287   85.2772   14.3212 C.3     1  UNL1        0.1537
     28 N          64.2015   85.0643   14.7305 N.ar    1  UNL1       -0.2487
     29 N          63.6637   85.1458   16.1284 N.ar    1  UNL1       -0.1676
     30 C          62.1912   84.8645   16.0758 C.ar    1  UNL1        0.1217
     31 C          61.8190   84.6091   14.6453 C.ar    1  UNL1        0.0413
     32 C          63.0614   84.7326   13.8139 C.ar    1  UNL1        0.0825
@<TRIPOS>BOND
     1    27    28    1
     2    28    29   ar
     3    29    30   ar
     4    30    31   ar
     5    31    32   ar
     6    32    20    1
     7    20    21   ar
     8    21    22   ar
     9    22    23    1
    10    22    24   ar
    11    24    25   ar
    12    25    26   ar
    13    26    19    1
    14    19     1    1
    15     1     2   ar
    16     2     3   ar
    17     3     4    1
    18     3     5   ar
    19     5     9    1
    20     9    10    2
    21     9    11    2
    22     9    12    1
    23    12    14    1
    24    14    15   ar
    25    15    16   ar
    26    16    17   ar
    27    17    18   ar
    28     5     6   ar
    29     6     7   ar
    30     7     8    1
    31    32    28   ar
    32    26    20   ar
    33     7     1   ar
    34    18    14   ar
    35    12    13    1
@<TRIPOS>MOLECULE
*****
 32 35 0 0 0
SMALL
GASTEIGER

@<TRIPOS>ATOM
      1 C          62.7551   88.3802   12.2201 C.ar    1  UNL1        0.1581
      2 C          62.4769   89.2224   11.0103 C.ar    1  UNL1        0.0694
      3 C          63.1469   90.5553   10.8543 C.ar    1  UNL1        0.1620
      4 F          62.8688   91.3975    9.6447 F       1  UNL1       -0.2026
      5 C          64.0951   91.0461   11.9081 C.ar    1  UNL1        0.1535
      6 C          64.3732   90.2039   13.1177 C.ar    1  UNL1        0.0370
      7 C          63.7032   88.8709   13.2737 C.ar    1  UNL1        0.0936
      8 CL         63.9814   88.0287   14.4835 Cl      1  UNL1       -0.0790
      9 S          64.7651   92.3790   11.7520 S.O2    1  UNL1        0.0769
     10 O          64.9673   92.4511   13.2366 O.2     1  UNL1       -0.1498
     11 O          64.5628   92.3069   10.2675 O.2     1  UNL1       -0.1498
     12 N          65.4351   93.7120   11.5960 N.pl3   1  UNL1       -0.1984
     13 H          65.2223   94.4456   12.2171 H       1  UNL1        0.1753
     14 C          66.4293   93.9272   10.4936 C.ar    1  UNL1        0.1542
     15 C          67.5102   92.9718   10.0823 C.ar    1  UNL1        0.0725
     16 S          68.2662   93.5896    8.9435 S.2     1  UNL1       -0.0625
     17 C          67.6525   94.9268    8.6511 C.ar    1  UNL1        0.1360
     18 N          66.5173   95.1354    9.6091 N.ar    1  UNL1       -0.2203
     19 O          62.0851   87.0472   12.3761 O.3     1  UNL1       -0.4525
     20 C          63.2242   84.7181   12.5432 C.ar    1  UNL1        0.0527
     21 C          63.8040   83.5049   11.8785 C.ar    1  UNL1        0.0159
     22 C          63.8246   83.4075   10.3819 C.ar    1  UNL1        0.0579
     23 CL         64.4044   82.1943    9.7171 Cl      1  UNL1       -0.0822
     24 C          63.2653   84.5234    9.5499 C.ar    1  UNL1        0.0145
     25 C          62.6855   85.7366   10.2146 C.ar    1  UNL1        0.0384
     26 C          62.6649   85.8339   11.7113 C.ar    1  UNL1        0.1467
     27 C          65.8251   85.1023   14.4765 C.3     1  UNL1        0.1537
     28 N          64.3991   84.9921   14.9286 N.ar    1  UNL1       -0.2487
     29 N          63.9183   85.0392   16.3486 N.ar    1  UNL1       -0.1676
     30 C          62.4256   84.8917   16.3377 C.ar    1  UNL1        0.1217
     31 C          61.9839   84.7535   14.9109 C.ar    1  UNL1        0.0413
     32 C          63.2036   84.8155   14.0400 C.ar    1  UNL1        0.0825
@<TRIPOS>BOND
     1    27    28    1
     2    28    29   ar
     3    29    30   ar
     4    30    31   ar
     5    31    32   ar
     6    32    20    1
     7    20    21   ar
     8    21    22   ar
     9    22    23    1
    10    22    24   ar
    11    24    25   ar
    12    25    26   ar
    13    26    19    1
    14    19     1    1
    15     1     2   ar
    16     2     3   ar
    17     3     4    1
    18     3     5   ar
    19     5     9    1
    20     9    10    2
    21     9    11    2
    22     9    12    1
    23    12    14    1
    24    14    15   ar
    25    15    16   ar
    26    16    17   ar
    27    17    18   ar
    28     5     6   ar
    29     6     7   ar
    30     7     8    1
    31    32    28   ar
    32    26    20   ar
    33     7     1   ar
    34    18    14   ar
    35    12    13    1
@<TRIPOS>MOLECULE
*****
 32 35 0 0 0
SMALL
GASTEIGER

@<TRIPOS>ATOM
      1 C          62.1661   88.6831   11.5617 C.ar    1  UNL1        0.1581
      2 C          63.2053   88.6448   12.6428 C.ar    1  UNL1        0.0694
      3 C          64.1014   89.8272   12.8640 C.ar    1  UNL1        0.1620
      4 F          65.1405   89.7889   13.9450 F       1  UNL1       -0.2026
      5 C          63.9583   91.0479   12.0041 C.ar    1  UNL1        0.1535
      6 C          62.9192   91.0862   10.9230 C.ar    1  UNL1        0.0370
      7 C          62.0231   89.9038   10.7018 C.ar    1  UNL1        0.0936
      8 CL         60.9840   89.9422    9.6207 Cl      1  UNL1       -0.0790
      9 S          64.8544   92.2303   12.2253 S.O2    1  UNL1        0.0769
     10 O          64.5783   92.1640   13.6981 O.2     1  UNL1       -0.1498
     11 O          65.1306   92.2966   10.7524 O.2     1  UNL1       -0.1498
     12 N          65.7506   93.4127   12.4465 N.pl3   1  UNL1       -0.1984
     13 H          65.9831   93.6896   13.3621 H       1  UNL1        0.1753
     14 C          66.2923   94.1732   11.2724 C.ar    1  UNL1        0.1542
     15 C          65.6892   95.4054   10.6658 C.ar    1  UNL1        0.0725
     16 S          66.5563   95.8288    9.5175 S.2     1  UNL1       -0.0625
     17 C          67.6954   94.8583    9.4143 C.ar    1  UNL1        0.1360
     18 N          67.5322   93.8351   10.4990 N.ar    1  UNL1       -0.2203
     19 O          61.2700   87.5007   11.3405 O.3     1  UNL1       -0.4525
     20 C          62.1128   85.4205   10.0317 C.ar    1  UNL1        0.0527
     21 C          62.2045   84.6384    8.7551 C.ar    1  UNL1        0.0159
     22 C          61.5452   85.1544    7.5105 C.ar    1  UNL1        0.0579
     23 CL         61.6369   84.3723    6.2338 Cl      1  UNL1       -0.0822
     24 C          60.7942   86.4524    7.5425 C.ar    1  UNL1        0.0145
     25 C          60.7024   87.2345    8.8192 C.ar    1  UNL1        0.0384
     26 C          61.3617   86.7186   10.0638 C.ar    1  UNL1        0.1467
     27 C          64.3968   83.0937   10.1692 C.3     1  UNL1        0.1537
     28 N          63.8219   83.8351   11.3396 N.ar    1  UNL1       -0.2487
     29 N          64.1960   83.6372   12.7786 N.ar    1  UNL1       -0.1676
     30 C          63.3773   84.5844   13.6049 C.ar    1  UNL1        0.1217
     31 C          62.4973   85.3677   12.6765 C.ar    1  UNL1        0.0413
     32 C          62.7721   84.9046   11.2764 C.ar    1  UNL1        0.0825
@<TRIPOS>BOND
     1    27    28    1
     2    28    29   ar
     3    29    30   ar
     4    30    31   ar
     5    31    32   ar
     6    32    20    1
     7    20    21   ar
     8    21    22   ar
     9    22    23    1
    10    22    24   ar
    11    24    25   ar
    12    25    26   ar
    13    26    19    1
    14    19     1    1
    15     1     2   ar
    16     2     3   ar
    17     3     4    1
    18     3     5   ar
    19     5     9    1
    20     9    10    2
    21     9    11    2
    22     9    12    1
    23    12    14    1
    24    14    15   ar
    25    15    16   ar
    26    16    17   ar
    27    17    18   ar
    28     5     6   ar
    29     6     7   ar
    30     7     8    1
    31    32    28   ar
    32    26    20   ar
    33     7     1   ar
    34    18    14   ar
    35    12    13    1
@<TRIPOS>MOLECULE
*****
 32 35 0 0 0
SMALL
GASTEIGER

@<TRIPOS>ATOM
      1 C          62.0483   86.5662   11.0646 C.ar    1  UNL1        0.1581
      2 C          61.4674   85.6990    9.9873 C.ar    1  UNL1        0.0694
      3 C          60.5903   86.3021    8.9305 C.ar    1  UNL1        0.1620
      4 F          60.0094   85.4349    7.8532 F       1  UNL1       -0.2026
      5 C          60.2941   87.7725    8.9509 C.ar    1  UNL1        0.1535
      6 C          60.8750   88.6396   10.0282 C.ar    1  UNL1        0.0370
      7 C          61.7521   88.0365   11.0850 C.ar    1  UNL1        0.0936
      8 CL         62.3330   88.9037   12.1623 Cl      1  UNL1       -0.0790
      9 S          59.4169   88.3756    7.8941 S.O2    1  UNL1        0.0769
     10 O          60.1516   89.6766    8.0269 O.2     1  UNL1       -0.1498
     11 O          58.6822   87.0746    7.7614 O.2     1  UNL1       -0.1498
     12 N          58.5398   88.9787    6.8373 N.pl3   1  UNL1       -0.1984
     13 H          57.6165   88.6573    6.7215 H       1  UNL1        0.1753
     14 C          59.0695   90.0717    5.9569 C.ar    1  UNL1        0.1542
     15 C          58.2803   91.2249    5.4115 C.ar    1  UNL1        0.0725
     16 S          59.2043   92.0693    4.5850 S.2     1  UNL1       -0.0625
     17 C          60.5646   91.4379    4.6195 C.ar    1  UNL1        0.1360
     18 N          60.4812   90.2034    5.4675 N.ar    1  UNL1       -0.2203
     19 O          62.9255   85.9631   12.1214 O.3     1  UNL1       -0.4525
     20 C          62.8664   83.9247   13.7313 C.ar    1  UNL1        0.0527
     21 C          62.8666   82.4406   13.9486 C.ar    1  UNL1        0.0159
     22 C          62.9260   81.5105   12.7733 C.ar    1  UNL1        0.0579
     23 CL         62.9262   80.0263   12.9906 Cl      1  UNL1       -0.0822
     24 C          62.9853   82.0646   11.3807 C.ar    1  UNL1        0.0145
     25 C          62.9851   83.5488   11.1634 C.ar    1  UNL1        0.0384
     26 C          62.9257   84.4788   12.3387 C.ar    1  UNL1        0.1467
     27 C          65.2572   85.9084   14.7306 C.3     1  UNL1        0.1537
     28 N          63.9059   85.7666   15.3660 N.ar    1  UNL1       -0.2487
     29 N          63.4162   86.5118   16.5722 N.ar    1  UNL1       -0.1676
     30 C          62.0146   86.0605   16.8584 C.ar    1  UNL1        0.1217
     31 C          61.6381   85.0365   15.8291 C.ar    1  UNL1        0.0413
     32 C          62.8069   84.8549   14.9067 C.ar    1  UNL1        0.0825
@<TRIPOS>BOND
     1    27    28    1
     2    28    29   ar
     3    29    30   ar
     4    30    31   ar
     5    31    32   ar
     6    32    20    1
     7    20    21   ar
     8    21    22   ar
     9    22    23    1
    10    22    24   ar
    11    24    25   ar
    12    25    26   ar
    13    26    19    1
    14    19     1    1
    15     1     2   ar
    16     2     3   ar
    17     3     4    1
    18     3     5   ar
    19     5     9    1
    20     9    10    2
    21     9    11    2
    22     9    12    1
    23    12    14    1
    24    14    15   ar
    25    15    16   ar
    26    16    17   ar
    27    17    18   ar
    28     5     6   ar
    29     6     7   ar
    30     7     8    1
    31    32    28   ar
    32    26    20   ar
    33     7     1   ar
    34    18    14   ar
    35    12    13    1
