@<TRIPOS>MOLECULE
*****
 33 37 0 0 0
SMALL
GASTEIGER

@<TRIPOS>ATOM
      1 C          63.5007   89.5184   12.7114 C.3     1  UNL1        0.0920
      2 C          63.3397   90.8735   12.0885 C.3     1  UNL1        0.0429
      3 C          62.3125   90.7646   11.0009 C.3     1  UNL1        0.0985
      4 N          61.8386   89.3424   10.9515 N.am    1  UNL1       -0.2443
      5 C          60.8108   88.7876   10.0103 C.2     1  UNL1        0.4048
      6 O          60.1575   89.6837    9.0002 O.2     1  UNL1       -0.2262
      7 C          62.5729   88.5721   12.0087 C.3     1  UNL1        0.1162
      8 N          64.4267   89.1707   13.8390 N.pl3   1  UNL1       -0.3175
      9 H          65.3417   89.5339   13.8543 H       1  UNL1        0.1482
     10 C          63.4641   88.8571   16.2317 C.ar    1  UNL1        0.0997
     11 C          62.9962   87.9561   17.3358 C.ar    1  UNL1        0.0147
     12 C          63.0230   86.4677   17.1515 C.ar    1  UNL1        0.0215
     13 C          63.5176   85.8803   15.8630 C.ar    1  UNL1        0.1003
     14 N          63.9856   86.7813   14.7588 N.ar    1  UNL1       -0.2287
     15 C          63.9588   88.2697   14.9432 C.ar    1  UNL1        0.1381
     16 N          63.4107   91.8339   16.6003 N.1     1  UNL1       -0.1907
     17 C          63.4374   90.3455   16.4160 C.1     1  UNL1        0.1032
     18 O          60.4362   87.3368   10.0791 O.3     1  UNL1       -0.4383
     19 C          61.4679   86.2822    9.8077 C.3     1  UNL1        0.1702
     20 C          62.0552   85.4977   10.9433 C.3     1  UNL1        0.0407
     21 C          62.4995   85.2276    9.5364 C.3     1  UNL1        0.0036
     22 C          63.5311   84.1730    9.2651 C.3     1  UNL1        0.0007
     23 C          62.9438   84.9575    8.1294 C.3     1  UNL1        0.0036
     24 C          61.9122   86.0120    8.4007 C.3     1  UNL1        0.0407
     25 C          63.5916   83.9556   10.3397 C.3     1  UNL1        0.0122
     26 C          63.6741   83.6587   11.8077 C.3     1  UNL1        0.0688
     27 C          64.1184   83.3886   10.4007 C.3     1  UNL1        0.0086
     28 C          62.6425   84.7132   12.0790 C.3     1  UNL1        0.0122
     29 C          64.2614   82.8742   12.9433 C.2     1  UNL1        0.2184
     30 N          65.1371   83.5562   13.9522 N.am    1  UNL1       -0.3288
     31 O          63.9729   81.4077   13.0701 O.2     1  UNL1       -0.2754
     32 H          65.3265   84.5188   13.8690 H       1  UNL1        0.1449
     33 H          65.5226   83.0414   14.6975 H       1  UNL1        0.1449
@<TRIPOS>BOND
     1    16    17    3
     2    17    10    1
     3    10    11   ar
     4    11    12   ar
     5    12    13   ar
     6    13    14   ar
     7    14    15   ar
     8    15     8    1
     9     1     8    1
    10     1     2    1
    11     2     3    1
    12     3     4    1
    13     4     5   am
    14     5     6    2
    15     5    18    1
    16    19    18    1
    17    19    20    1
    18    20    21    1
    19    21    22    1
    20    22    23    1
    21    23    24    1
    22    24    25    1
    23    25    26    1
    24    26    29    1
    25    29    30   am
    26    29    31    2
    27    26    27    1
    28    26    28    1
    29     4     7    1
    30    15    10   ar
    31     7     1    1
    32    24    19    1
    33    28    20    1
    34    27    22    1
    35     8     9    1
    36    30    32    1
    37    30    33    1
@<TRIPOS>MOLECULE
*****
 33 37 0 0 0
SMALL
GASTEIGER

@<TRIPOS>ATOM
      1 C          61.6985   90.0432   10.6284 C.3     1  UNL1        0.0920
      2 C          60.2174   90.0211   10.3914 C.3     1  UNL1        0.0429
      3 C          59.8793   88.7387    9.6906 C.3     1  UNL1        0.0985
      4 N          61.1512   87.9682    9.4945 N.am    1  UNL1       -0.2443
      5 C          61.2768   86.6269    8.8346 C.2     1  UNL1        0.4048
      6 O          60.0570   85.9372    8.2995 O.2     1  UNL1       -0.2262
      7 C          62.2756   88.7743   10.0740 C.3     1  UNL1        0.1162
      8 N          62.4674   91.1412   11.3015 N.pl3   1  UNL1       -0.3175
      9 H          62.4235   92.0598   10.9501 H       1  UNL1        0.1482
     10 C          64.6275   91.5192   12.6946 C.ar    1  UNL1        0.0997
     11 C          65.4632   91.2177   13.9031 C.ar    1  UNL1        0.0147
     12 C          64.9745   90.2365   14.9271 C.ar    1  UNL1        0.0215
     13 C          63.6501   89.5569   14.7426 C.ar    1  UNL1        0.1003
     14 N          62.8144   89.8585   13.5340 N.ar    1  UNL1       -0.2287
     15 C          63.3031   90.8396   12.5101 C.ar    1  UNL1        0.1381
     16 N          65.6048   93.4815   10.6466 N.1     1  UNL1       -0.1907
     17 C          65.1162   92.5004   11.6706 C.1     1  UNL1        0.1032
     18 O          62.6222   85.9755    8.7100 O.3     1  UNL1       -0.4383
     19 C          63.0611   84.9610    9.7241 C.3     1  UNL1        0.1702
     20 C          62.9727   85.2769   11.1877 C.3     1  UNL1        0.0407
     21 C          63.5001   83.9467   10.7381 C.3     1  UNL1        0.0036
     22 C          63.9390   82.9323   11.7522 C.3     1  UNL1        0.0007
     23 C          64.0274   82.6164   10.2885 C.3     1  UNL1        0.0036
     24 C          63.5884   83.6307    9.2744 C.3     1  UNL1        0.0407
     25 C          63.6788   83.6280   12.5609 C.3     1  UNL1        0.0122
     26 C          63.3233   84.5785   13.6655 C.3     1  UNL1        0.0688
     27 C          63.8506   83.2482   13.2159 C.3     1  UNL1        0.0086
     28 C          62.8844   85.5929   12.6514 C.3     1  UNL1        0.0122
     29 C          63.2349   84.8944   15.1292 C.2     1  UNL1        0.2184
     30 N          64.4727   85.2595   15.8937 N.am    1  UNL1       -0.3288
     31 O          61.9087   84.8452   15.8283 O.2     1  UNL1       -0.2754
     32 H          65.3431   85.2918   15.4349 H       1  UNL1        0.1449
     33 H          64.4146   85.4668   16.8544 H       1  UNL1        0.1449
@<TRIPOS>BOND
     1    16    17    3
     2    17    10    1
     3    10    11   ar
     4    11    12   ar
     5    12    13   ar
     6    13    14   ar
     7    14    15   ar
     8    15     8    1
     9     1     8    1
    10     1     2    1
    11     2     3    1
    12     3     4    1
    13     4     5   am
    14     5     6    2
    15     5    18    1
    16    19    18    1
    17    19    20    1
    18    20    21    1
    19    21    22    1
    20    22    23    1
    21    23    24    1
    22    24    25    1
    23    25    26    1
    24    26    29    1
    25    29    30   am
    26    29    31    2
    27    26    27    1
    28    26    28    1
    29     4     7    1
    30    15    10   ar
    31     7     1    1
    32    24    19    1
    33    28    20    1
    34    27    22    1
    35     8     9    1
    36    30    32    1
    37    30    33    1
@<TRIPOS>MOLECULE
*****
 33 37 0 0 0
SMALL
GASTEIGER

@<TRIPOS>ATOM
      1 C          63.0259   84.1778   10.7041 C.3     1  UNL1        0.0920
      2 C          62.3847   82.8382   10.9154 C.3     1  UNL1        0.0429
      3 C          62.7000   82.3884   12.3112 C.3     1  UNL1        0.0985
      4 N          63.5361   83.4498   12.9625 N.am    1  UNL1       -0.2443
      5 C          64.0760   83.4120   14.3615 C.2     1  UNL1        0.4048
      6 O          63.7907   82.2331   15.2439 O.2     1  UNL1       -0.2262
      7 C          63.7376   84.5557   11.9694 C.3     1  UNL1        0.1162
      8 N          62.9660   84.9957    9.4481 N.pl3   1  UNL1       -0.3175
      9 H          63.5529   84.7756    8.6890 H       1  UNL1        0.1482
     10 C          61.0942   86.2634    8.1679 C.ar    1  UNL1        0.0997
     11 C          60.1401   87.4165    8.0687 C.ar    1  UNL1        0.0147
     12 C          60.1037   88.4552    9.1504 C.ar    1  UNL1        0.0215
     13 C          61.0215   88.3406   10.3313 C.ar    1  UNL1        0.1003
     14 N          61.9756   87.1874   10.4306 N.ar    1  UNL1       -0.2287
     15 C          62.0119   86.1488    9.3489 C.ar    1  UNL1        0.1381
     16 N          61.1670   84.1863    6.0046 N.1     1  UNL1       -0.1907
     17 C          61.1306   85.2248    7.0863 C.1     1  UNL1        0.1032
     18 O          64.9013   84.5531   14.8780 O.3     1  UNL1       -0.4383
     19 C          64.2390   85.6968   15.5875 C.3     1  UNL1        0.1702
     20 C          64.3727   87.0910   15.0505 C.3     1  UNL1        0.0407
     21 C          63.5768   86.8405   16.2970 C.3     1  UNL1        0.0036
     22 C          62.9146   87.9842   17.0065 C.3     1  UNL1        0.0007
     23 C          62.7810   86.5900   17.5435 C.3     1  UNL1        0.0036
     24 C          63.4432   85.4463   16.8340 C.3     1  UNL1        0.0407
     25 C          63.3074   88.6794   16.2527 C.3     1  UNL1        0.0122
     26 C          63.8441   89.6289   15.2230 C.3     1  UNL1        0.0688
     27 C          63.0482   89.3784   16.4695 C.3     1  UNL1        0.0086
     28 C          64.5063   88.4852   14.5135 C.3     1  UNL1        0.0122
     29 C          63.9778   91.0230   14.6859 C.2     1  UNL1        0.2184
     30 N          63.4459   91.3562   13.3236 N.am    1  UNL1       -0.3288
     31 O          64.6433   92.0841   15.5113 O.2     1  UNL1       -0.2754
     32 H          63.0091   90.6598   12.7818 H       1  UNL1        0.1449
     33 H          63.5336   92.2712   12.9711 H       1  UNL1        0.1449
@<TRIPOS>BOND
     1    16    17    3
     2    17    10    1
     3    10    11   ar
     4    11    12   ar
     5    12    13   ar
     6    13    14   ar
     7    14    15   ar
     8    15     8    1
     9     1     8    1
    10     1     2    1
    11     2     3    1
    12     3     4    1
    13     4     5   am
    14     5     6    2
    15     5    18    1
    16    19    18    1
    17    19    20    1
    18    20    21    1
    19    21    22    1
    20    22    23    1
    21    23    24    1
    22    24    25    1
    23    25    26    1
    24    26    29    1
    25    29    30   am
    26    29    31    2
    27    26    27    1
    28    26    28    1
    29     4     7    1
    30    15    10   ar
    31     7     1    1
    32    24    19    1
    33    28    20    1
    34    27    22    1
    35     8     9    1
    36    30    32    1
    37    30    33    1
@<TRIPOS>MOLECULE
*****
 33 37 0 0 0
SMALL
GASTEIGER

@<TRIPOS>ATOM
      1 C          61.3688   89.1605   11.5043 C.3     1  UNL1        0.0920
      2 C          59.9935   89.2071   10.9072 C.3     1  UNL1        0.0429
      3 C          59.9093   88.1430    9.8534 C.3     1  UNL1        0.0985
      4 N          61.2326   87.4387    9.7992 N.am    1  UNL1       -0.2443
      5 C          61.5909   86.3046    8.8851 C.2     1  UNL1        0.4048
      6 O          60.5791   85.7780    7.9110 O.2     1  UNL1       -0.2262
      7 C          62.1346   88.0674   10.8195 C.3     1  UNL1        0.1162
      8 N          61.8872   90.0505   12.5948 N.pl3   1  UNL1       -0.3175
      9 H          61.3914   90.1316   13.4414 H       1  UNL1        0.1482
     10 C          64.0704   91.0764   13.5597 C.ar    1  UNL1        0.0997
     11 C          65.3443   91.8428   13.3602 C.ar    1  UNL1        0.0147
     12 C          65.7089   92.3496   11.9962 C.ar    1  UNL1        0.0215
     13 C          64.7996   92.0900   10.8319 C.ar    1  UNL1        0.1003
     14 N          63.5257   91.3236   11.0313 N.ar    1  UNL1       -0.2287
     15 C          63.1612   90.8168   12.3953 C.ar    1  UNL1        0.1381
     16 N          63.3411   90.0628   16.2874 N.1     1  UNL1       -0.1907
     17 C          63.7058   90.5696   14.9235 C.1     1  UNL1        0.1032
     18 O          62.9611   85.6971    8.9451 O.3     1  UNL1       -0.4383
     19 C          63.2687   84.6397    9.9637 C.3     1  UNL1        0.1702
     20 C          63.2008   84.9650   11.4264 C.3     1  UNL1        0.0407
     21 C          63.5764   83.5824   10.9822 C.3     1  UNL1        0.0036
     22 C          63.8840   82.5251   12.0007 C.3     1  UNL1        0.0007
     23 C          63.9519   82.1998   10.5380 C.3     1  UNL1        0.0036
     24 C          63.6443   83.2572    9.5195 C.3     1  UNL1        0.0407
     25 C          63.6965   83.2469   12.8067 C.3     1  UNL1        0.0122
     26 C          63.4405   84.2329   13.9076 C.3     1  UNL1        0.0688
     27 C          63.8160   82.8504   13.4634 C.3     1  UNL1        0.0086
     28 C          63.1328   85.2902   12.8891 C.3     1  UNL1        0.0122
     29 C          63.3725   84.5582   15.3704 C.2     1  UNL1        0.2184
     30 N          64.5387   85.2149   16.0476 N.am    1  UNL1       -0.3288
     31 O          62.1384   84.2268   16.1558 O.2     1  UNL1       -0.2754
     32 H          65.3487   85.4324   15.5321 H       1  UNL1        0.1449
     33 H          64.4941   85.4283   17.0077 H       1  UNL1        0.1449
@<TRIPOS>BOND
     1    16    17    3
     2    17    10    1
     3    10    11   ar
     4    11    12   ar
     5    12    13   ar
     6    13    14   ar
     7    14    15   ar
     8    15     8    1
     9     1     8    1
    10     1     2    1
    11     2     3    1
    12     3     4    1
    13     4     5   am
    14     5     6    2
    15     5    18    1
    16    19    18    1
    17    19    20    1
    18    20    21    1
    19    21    22    1
    20    22    23    1
    21    23    24    1
    22    24    25    1
    23    25    26    1
    24    26    29    1
    25    29    30   am
    26    29    31    2
    27    26    27    1
    28    26    28    1
    29     4     7    1
    30    15    10   ar
    31     7     1    1
    32    24    19    1
    33    28    20    1
    34    27    22    1
    35     8     9    1
    36    30    32    1
    37    30    33    1
@<TRIPOS>MOLECULE
*****
 33 37 0 0 0
SMALL
GASTEIGER

@<TRIPOS>ATOM
      1 C          63.4946   89.6562   12.3147 C.3     1  UNL1        0.0920
      2 C          63.2921   90.9650   11.6104 C.3     1  UNL1        0.0429
      3 C          62.2409   90.7678   10.5587 C.3     1  UNL1        0.0985
      4 N          61.7936   89.3371   10.6130 N.am    1  UNL1       -0.2443
      5 C          60.7541   88.7043    9.7360 C.2     1  UNL1        0.4048
      6 O          60.0590   89.5215    8.6876 O.2     1  UNL1       -0.2262
      7 C          62.5684   88.6500   11.6983 C.3     1  UNL1        0.1162
      8 N          64.4545   89.3987   13.4382 N.pl3   1  UNL1       -0.3175
      9 H          64.7842   88.4861   13.6045 H       1  UNL1        0.1482
     10 C          64.2210   90.8030   15.6115 C.ar    1  UNL1        0.0997
     11 C          64.6786   91.9360   16.4815 C.ar    1  UNL1        0.0147
     12 C          65.8274   92.7977   16.0481 C.ar    1  UNL1        0.0215
     13 C          66.5186   92.5264   14.7447 C.ar    1  UNL1        0.1003
     14 N          66.0609   91.3934   13.8747 N.ar    1  UNL1       -0.2287
     15 C          64.9121   90.5317   14.3082 C.ar    1  UNL1        0.1381
     16 N          61.9235   89.0796   16.4782 N.1     1  UNL1       -0.1907
     17 C          63.0723   89.9413   16.0449 C.1     1  UNL1        0.1032
     18 O          60.4096   87.2546    9.9075 O.3     1  UNL1       -0.4383
     19 C          61.4648   86.2054    9.7181 C.3     1  UNL1        0.1702
     20 C          61.9718   85.4300   10.8978 C.3     1  UNL1        0.0407
     21 C          62.5200   85.1563    9.5287 C.3     1  UNL1        0.0036
     22 C          63.5752   84.1072    9.3393 C.3     1  UNL1        0.0007
     23 C          63.0683   84.8826    8.1596 C.3     1  UNL1        0.0036
     24 C          62.0131   85.9317    8.3490 C.3     1  UNL1        0.0407
     25 C          63.5578   83.8951   10.4166 C.3     1  UNL1        0.0122
     26 C          63.5339   83.6055   11.8882 C.3     1  UNL1        0.0688
     27 C          64.0822   83.3318   10.5191 C.3     1  UNL1        0.0086
     28 C          62.4787   84.6546   12.0775 C.3     1  UNL1        0.0122
     29 C          64.0409   82.8301   13.0679 C.2     1  UNL1        0.2184
     30 N          63.8472   81.3439   13.1279 N.am    1  UNL1       -0.3288
     31 O          64.7415   83.5409   14.1876 O.2     1  UNL1       -0.2754
     32 H          63.3874   80.8773   12.3929 H       1  UNL1        0.1449
     33 H          64.1800   80.8350   13.9022 H       1  UNL1        0.1449
@<TRIPOS>BOND
     1    16    17    3
     2    17    10    1
     3    10    11   ar
     4    11    12   ar
     5    12    13   ar
     6    13    14   ar
     7    14    15   ar
     8    15     8    1
     9     1     8    1
    10     1     2    1
    11     2     3    1
    12     3     4    1
    13     4     5   am
    14     5     6    2
    15     5    18    1
    16    19    18    1
    17    19    20    1
    18    20    21    1
    19    21    22    1
    20    22    23    1
    21    23    24    1
    22    24    25    1
    23    25    26    1
    24    26    29    1
    25    29    30   am
    26    29    31    2
    27    26    27    1
    28    26    28    1
    29     4     7    1
    30    15    10   ar
    31     7     1    1
    32    24    19    1
    33    28    20    1
    34    27    22    1
    35     8     9    1
    36    30    32    1
    37    30    33    1
@<TRIPOS>MOLECULE
*****
 33 37 0 0 0
SMALL
GASTEIGER

@<TRIPOS>ATOM
      1 C          62.7939   85.2148   11.1324 C.3     1  UNL1        0.0920
      2 C          62.1509   83.8686   10.9757 C.3     1  UNL1        0.0429
      3 C          62.4861   83.0509   12.1877 C.3     1  UNL1        0.0985
      4 N          63.3363   83.8917   13.0935 N.am    1  UNL1       -0.2443
      5 C          63.8977   83.4693   14.4188 C.2     1  UNL1        0.4048
      6 O          63.6215   82.0923   14.9458 O.2     1  UNL1       -0.2262
      7 C          63.5265   85.2290   12.4413 C.3     1  UNL1        0.1162
      8 N          62.7177   86.3478   10.1523 N.pl3   1  UNL1       -0.3175
      9 H          63.4872   86.9508   10.0362 H       1  UNL1        0.1482
     10 C          60.4898   87.6235    9.7539 C.ar    1  UNL1        0.0997
     11 C          59.2412   87.8377    8.9508 C.ar    1  UNL1        0.0147
     12 C          58.9720   86.9902    7.7427 C.ar    1  UNL1        0.0215
     13 C          59.9513   85.9286    7.3379 C.ar    1  UNL1        0.1003
     14 N          61.1999   85.7144    8.1411 N.ar    1  UNL1       -0.2287
     15 C          61.4691   86.5619    9.3491 C.ar    1  UNL1        0.1381
     16 N          61.0283   89.3184   12.1700 N.1     1  UNL1       -0.1907
     17 C          60.7590   88.4710   10.9620 C.1     1  UNL1        0.1032
     18 O          64.7351   84.4238   15.2172 O.3     1  UNL1       -0.4383
     19 C          64.1043   85.6322   15.8433 C.3     1  UNL1        0.1702
     20 C          64.2774   86.9813   15.2107 C.3     1  UNL1        0.0407
     21 C          63.4736   86.8406   16.4693 C.3     1  UNL1        0.0036
     22 C          62.8428   88.0490   17.0953 C.3     1  UNL1        0.0007
     23 C          62.6698   86.6999   17.7278 C.3     1  UNL1        0.0036
     24 C          63.3005   85.4915   17.1018 C.3     1  UNL1        0.0407
     25 C          63.2557   88.6786   16.2960 C.3     1  UNL1        0.0122
     26 C          63.8197   89.5387   15.2042 C.3     1  UNL1        0.0688
     27 C          63.0159   89.3980   16.4627 C.3     1  UNL1        0.0086
     28 C          64.4505   88.3303   14.5782 C.3     1  UNL1        0.0122
     29 C          63.9928   90.8877   14.5716 C.2     1  UNL1        0.2184
     30 N          63.3403   91.1879   13.2548 N.am    1  UNL1       -0.3288
     31 O          64.8184   91.9366   15.2559 O.2     1  UNL1       -0.2754
     32 H          62.7984   90.4995   12.8057 H       1  UNL1        0.1449
     33 H          63.4539   92.0734   12.8397 H       1  UNL1        0.1449
@<TRIPOS>BOND
     1    16    17    3
     2    17    10    1
     3    10    11   ar
     4    11    12   ar
     5    12    13   ar
     6    13    14   ar
     7    14    15   ar
     8    15     8    1
     9     1     8    1
    10     1     2    1
    11     2     3    1
    12     3     4    1
    13     4     5   am
    14     5     6    2
    15     5    18    1
    16    19    18    1
    17    19    20    1
    18    20    21    1
    19    21    22    1
    20    22    23    1
    21    23    24    1
    22    24    25    1
    23    25    26    1
    24    26    29    1
    25    29    30   am
    26    29    31    2
    27    26    27    1
    28    26    28    1
    29     4     7    1
    30    15    10   ar
    31     7     1    1
    32    24    19    1
    33    28    20    1
    34    27    22    1
    35     8     9    1
    36    30    32    1
    37    30    33    1
@<TRIPOS>MOLECULE
*****
 33 37 0 0 0
SMALL
GASTEIGER

@<TRIPOS>ATOM
      1 C          64.3211   84.8605   14.3874 C.3     1  UNL1        0.0920
      2 C          63.4081   84.6710   15.5624 C.3     1  UNL1        0.0429
      3 C          63.1366   86.0194   16.1607 C.3     1  UNL1        0.0985
      4 N          63.8817   87.0423   15.3554 N.am    1  UNL1       -0.2443
      5 C          63.8928   88.5218   15.6027 C.2     1  UNL1        0.4048
      6 O          63.1077   89.0974   16.7439 O.2     1  UNL1       -0.2262
      7 C          64.6138   86.3262   14.2594 C.3     1  UNL1        0.1162
      8 N          64.8487   83.7750   13.4967 N.pl3   1  UNL1       -0.3175
      9 H          65.7300   83.8740   13.0691 H       1  UNL1        0.1482
     10 C          63.4009   82.3051   11.9177 C.ar    1  UNL1        0.0997
     11 C          62.5859   81.0689   11.6784 C.ar    1  UNL1        0.0147
     12 C          62.4035   80.0661   12.7791 C.ar    1  UNL1        0.0215
     13 C          63.0362   80.2997   14.1189 C.ar    1  UNL1        0.1003
     14 N          63.8513   81.5360   14.3581 N.ar    1  UNL1       -0.2287
     15 C          64.0336   82.5387   13.2575 C.ar    1  UNL1        0.1381
     16 N          63.7657   84.3105    9.7165 N.1     1  UNL1       -0.1907
     17 C          63.5833   83.3078   10.8171 C.1     1  UNL1        0.1032
     18 O          64.6889   89.4257   14.7087 O.3     1  UNL1       -0.4383
     19 C          64.1161   89.8793   13.3987 C.3     1  UNL1        0.1702
     20 C          63.3505   88.9158   12.5411 C.3     1  UNL1        0.0407
     21 C          63.5432   90.3329   12.0888 C.3     1  UNL1        0.0036
     22 C          62.9703   90.7865   10.7788 C.3     1  UNL1        0.0007
     23 C          63.7359   91.7500   11.6364 C.3     1  UNL1        0.0036
     24 C          64.3088   91.2964   12.9464 C.3     1  UNL1        0.0407
     25 C          62.5653   89.7804   10.6075 C.3     1  UNL1        0.0122
     26 C          62.0120   88.4059   10.3735 C.3     1  UNL1        0.0688
     27 C          62.2047   89.8230    9.9212 C.3     1  UNL1        0.0086
     28 C          62.5849   87.9523   11.6834 C.3     1  UNL1        0.0122
     29 C          61.2464   87.4424    9.5158 C.2     1  UNL1        0.2184
     30 N          61.9776   86.4023    8.7200 N.am    1  UNL1       -0.3288
     31 O          59.7497   87.5191    9.4540 O.2     1  UNL1       -0.2754
     32 H          62.9600   86.3519    8.7605 H       1  UNL1        0.1449
     33 H          61.4751   85.7699    8.1571 H       1  UNL1        0.1449
@<TRIPOS>BOND
     1    16    17    3
     2    17    10    1
     3    10    11   ar
     4    11    12   ar
     5    12    13   ar
     6    13    14   ar
     7    14    15   ar
     8    15     8    1
     9     1     8    1
    10     1     2    1
    11     2     3    1
    12     3     4    1
    13     4     5   am
    14     5     6    2
    15     5    18    1
    16    19    18    1
    17    19    20    1
    18    20    21    1
    19    21    22    1
    20    22    23    1
    21    23    24    1
    22    24    25    1
    23    25    26    1
    24    26    29    1
    25    29    30   am
    26    29    31    2
    27    26    27    1
    28    26    28    1
    29     4     7    1
    30    15    10   ar
    31     7     1    1
    32    24    19    1
    33    28    20    1
    34    27    22    1
    35     8     9    1
    36    30    32    1
    37    30    33    1
@<TRIPOS>MOLECULE
*****
 33 37 0 0 0
SMALL
GASTEIGER

@<TRIPOS>ATOM
      1 C          63.8756   88.9889   13.2602 C.3     1  UNL1        0.0920
      2 C          63.9074   90.3671   12.6689 C.3     1  UNL1        0.0429
      3 C          62.9828   90.3863   11.4880 C.3     1  UNL1        0.0985
      4 N          62.3795   89.0200   11.3493 N.am    1  UNL1       -0.2443
      5 C          61.3970   88.5923   10.2996 C.2     1  UNL1        0.4048
      6 O          60.9332   89.5720    9.2628 O.2     1  UNL1       -0.2262
      7 C          62.9313   88.1563   12.4446 C.3     1  UNL1        0.1162
      8 N          64.6518   88.5248   14.4569 N.pl3   1  UNL1       -0.3175
      9 H          65.6224   88.6823   14.5054 H       1  UNL1        0.1482
     10 C          64.0614   86.3314   15.7180 C.ar    1  UNL1        0.0997
     11 C          63.3588   85.6274   16.8407 C.ar    1  UNL1        0.0147
     12 C          62.5439   86.4128   17.8253 C.ar    1  UNL1        0.0215
     13 C          62.4317   87.9022   17.6869 C.ar    1  UNL1        0.1003
     14 N          63.1343   88.6062   16.5641 N.ar    1  UNL1       -0.2287
     15 C          63.9492   87.8208   15.5797 C.ar    1  UNL1        0.1381
     16 N          65.6911   84.7607   13.7490 N.1     1  UNL1       -0.1907
     17 C          64.8762   85.5461   14.7335 C.1     1  UNL1        0.1032
     18 O          60.8782   87.1850   10.2869 O.3     1  UNL1       -0.4383
     19 C          61.8235   86.0390   10.0789 C.3     1  UNL1        0.1702
     20 C          62.0170   85.0202   11.1627 C.3     1  UNL1        0.0407
     21 C          62.7688   84.8931    9.8709 C.3     1  UNL1        0.0036
     22 C          63.7141   83.7471    9.6630 C.3     1  UNL1        0.0007
     23 C          63.5206   84.7659    8.5792 C.3     1  UNL1        0.0036
     24 C          62.5753   85.9118    8.7871 C.3     1  UNL1        0.0407
     25 C          63.4781   83.3702   10.6671 C.3     1  UNL1        0.0122
     26 C          63.1558   82.8555   12.0386 C.3     1  UNL1        0.0688
     27 C          63.9076   82.7284   10.7468 C.3     1  UNL1        0.0086
     28 C          62.2106   84.0014   12.2465 C.3     1  UNL1        0.0122
     29 C          63.3493   81.8367   13.1224 C.2     1  UNL1        0.2184
     30 N          62.9847   80.4025   12.8774 N.am    1  UNL1       -0.3288
     31 O          63.9074   82.2521   14.4512 O.2     1  UNL1       -0.2754
     32 H          62.6184   80.1298   12.0052 H       1  UNL1        0.1449
     33 H          63.1117   79.7339   13.5887 H       1  UNL1        0.1449
@<TRIPOS>BOND
     1    16    17    3
     2    17    10    1
     3    10    11   ar
     4    11    12   ar
     5    12    13   ar
     6    13    14   ar
     7    14    15   ar
     8    15     8    1
     9     1     8    1
    10     1     2    1
    11     2     3    1
    12     3     4    1
    13     4     5   am
    14     5     6    2
    15     5    18    1
    16    19    18    1
    17    19    20    1
    18    20    21    1
    19    21    22    1
    20    22    23    1
    21    23    24    1
    22    24    25    1
    23    25    26    1
    24    26    29    1
    25    29    30   am
    26    29    31    2
    27    26    27    1
    28    26    28    1
    29     4     7    1
    30    15    10   ar
    31     7     1    1
    32    24    19    1
    33    28    20    1
    34    27    22    1
    35     8     9    1
    36    30    32    1
    37    30    33    1
@<TRIPOS>MOLECULE
*****
 33 37 0 0 0
SMALL
GASTEIGER

@<TRIPOS>ATOM
      1 C          63.5772   90.2341   11.5971 C.3     1  UNL1        0.0920
      2 C          63.2020   91.3342   10.6488 C.3     1  UNL1        0.0429
      3 C          62.0654   90.8469    9.8000 C.3     1  UNL1        0.0985
      4 N          61.7381   89.4456   10.2236 N.am    1  UNL1       -0.2443
      5 C          60.6648   88.5758    9.6391 C.2     1  UNL1        0.4048
      6 O          59.8033   89.0935    8.5257 O.2     1  UNL1       -0.2262
      7 C          62.6724   89.0669   11.3342 C.3     1  UNL1        0.1162
      8 N          64.6660   90.2912   12.6272 N.pl3   1  UNL1       -0.3175
      9 H          65.6082   90.2127   12.3526 H       1  UNL1        0.1482
     10 C          64.9553   91.5702   14.8701 C.ar    1  UNL1        0.0997
     11 C          64.6087   91.7471   16.3187 C.ar    1  UNL1        0.0147
     12 C          63.6260   90.8217   16.9731 C.ar    1  UNL1        0.0215
     13 C          62.9901   89.7195   16.1789 C.ar    1  UNL1        0.1003
     14 N          63.3367   89.5427   14.7302 N.ar    1  UNL1       -0.2287
     15 C          64.3193   90.4681   14.0759 C.ar    1  UNL1        0.1381
     16 N          66.9205   93.4208   13.5613 N.1     1  UNL1       -0.1907
     17 C          65.9379   92.4955   14.2157 C.1     1  UNL1        0.1032
     18 O          60.4531   87.1882   10.1681 O.3     1  UNL1       -0.4383
     19 C          61.5174   86.1465    9.9882 C.3     1  UNL1        0.1702
     20 C          62.0027   85.3585   11.1686 C.3     1  UNL1        0.0407
     21 C          62.5815   85.1048    9.8083 C.3     1  UNL1        0.0036
     22 C          63.6457   84.0631    9.6284 C.3     1  UNL1        0.0007
     23 C          63.1603   84.8511    8.4479 C.3     1  UNL1        0.0036
     24 C          62.0961   85.8928    8.6278 C.3     1  UNL1        0.0407
     25 C          63.6062   83.8372   10.7023 C.3     1  UNL1        0.0122
     26 C          63.5522   83.5288   12.1692 C.3     1  UNL1        0.0688
     27 C          64.1310   83.2751   10.8088 C.3     1  UNL1        0.0086
     28 C          62.4881   84.5705   12.3491 C.3     1  UNL1        0.0122
     29 C          64.0376   82.7408   13.3496 C.2     1  UNL1        0.2184
     30 N          63.9501   81.2434   13.3391 N.am    1  UNL1       -0.3288
     31 O          64.6105   83.4502   14.5407 O.2     1  UNL1       -0.2754
     32 H          63.5741   80.7778   12.5574 H       1  UNL1        0.1449
     33 H          64.2687   80.7262   14.1139 H       1  UNL1        0.1449
@<TRIPOS>BOND
     1    16    17    3
     2    17    10    1
     3    10    11   ar
     4    11    12   ar
     5    12    13   ar
     6    13    14   ar
     7    14    15   ar
     8    15     8    1
     9     1     8    1
    10     1     2    1
    11     2     3    1
    12     3     4    1
    13     4     5   am
    14     5     6    2
    15     5    18    1
    16    19    18    1
    17    19    20    1
    18    20    21    1
    19    21    22    1
    20    22    23    1
    21    23    24    1
    22    24    25    1
    23    25    26    1
    24    26    29    1
    25    29    30   am
    26    29    31    2
    27    26    27    1
    28    26    28    1
    29     4     7    1
    30    15    10   ar
    31     7     1    1
    32    24    19    1
    33    28    20    1
    34    27    22    1
    35     8     9    1
    36    30    32    1
    37    30    33    1
