@<TRIPOS>MOLECULE
*****
 32 36 0 0 0
SMALL
GASTEIGER

@<TRIPOS>ATOM
      1 N          61.9812   90.0444   12.6572 N.pl3   1  UNL1       -0.2806
      2 H          61.3245   90.2562   13.3594 H       1  UNL1        0.1551
      3 C          64.0476   90.2421   15.1752 C.3     1  UNL1        0.0553
      4 C          64.2672   90.8169   13.8073 C.ar    1  UNL1        0.0935
      5 N          65.4751   91.5835   13.3565 N.ar    1  UNL1       -0.1727
      6 N          65.2719   91.9665   11.9205 N.ar    1  UNL1       -0.2558
      7 C          63.9383   91.4365   11.4837 C.ar    1  UNL1        0.0704
      8 C          63.3321   91.5900   10.1204 C.3     1  UNL1        0.0531
      9 C          63.3173   90.7260   12.6498 C.ar    1  UNL1        0.0792
     10 C          66.2333   92.7430   11.0704 C.3     1  UNL1        0.1076
     11 C          67.3992   92.0486   10.4313 C.3     1  UNL1        0.0415
     12 C          68.3607   92.8251    9.5812 C.3     1  UNL1        0.0706
     13 N          68.1563   94.2961    9.3704 N.3     1  UNL1       -0.2974
     14 C          66.9904   94.9905   10.0096 C.3     1  UNL1        0.0706
     15 C          66.0290   94.2139   10.8596 C.3     1  UNL1        0.0415
     16 H          68.0693   94.4401    8.3644 H       1  UNL1        0.1232
     17 C          61.6457   89.0400   11.5949 C.ar    1  UNL1        0.2208
     18 N          60.6216   89.3681   10.5492 N.ar    1  UNL1       -0.2111
     19 C          60.2860   88.3637    9.4869 C.ar    1  UNL1        0.1147
     20 C          60.9746   87.0312    9.4702 C.ar    1  UNL1        0.0946
     21 CL         60.6391   86.0268    8.4079 Cl      1  UNL1       -0.0790
     22 C          61.9989   86.7031   10.5159 C.ar    1  UNL1        0.0992
     23 N          62.3343   87.7075   11.5782 N.ar    1  UNL1       -0.2126
     24 C          62.6875   85.3706   10.4993 C.ar    1  UNL1        0.0572
     25 C          63.2765   84.6975    9.2951 C.ar    1  UNL1        0.1235
     26 N          63.8610   83.3882    9.7355 N.ar    1  UNL1       -0.1634
     27 N          63.6333   83.2520   11.2118 N.ar    1  UNL1       -0.2281
     28 C          63.9926   82.1707   12.1873 C.ar    1  UNL1        0.1004
     29 C          63.6267   82.3146   13.6348 C.ar    1  UNL1        0.0207
     30 C          62.9014   83.5398   14.1068 C.ar    1  UNL1        0.0031
     31 C          62.5421   84.6211   13.1314 C.ar    1  UNL1        0.0193
     32 C          62.9080   84.4772   11.6839 C.ar    1  UNL1        0.0858
@<TRIPOS>BOND
     1     3     4    1
     2     4     5   ar
     3     5     6   ar
     4     6    10    1
     5    10    11    1
     6    11    12    1
     7    12    13    1
     8    13    14    1
     9    14    15    1
    10     6     7   ar
    11     7     8    1
    12     7     9   ar
    13     9     1    1
    14     1    17    1
    15    17    18   ar
    16    18    19   ar
    17    19    20   ar
    18    20    21    1
    19    20    22   ar
    20    22    24    1
    21    24    25   ar
    22    25    26   ar
    23    26    27   ar
    24    27    28   ar
    25    28    29   ar
    26    29    30   ar
    27    30    31   ar
    28    31    32   ar
    29    22    23   ar
    30     9     4   ar
    31    23    17   ar
    32    15    10    1
    33    32    24   ar
    34    32    27   ar
    35    13    16    1
    36     1     2    1
@<TRIPOS>MOLECULE
*****
 32 36 0 0 0
SMALL
GASTEIGER

@<TRIPOS>ATOM
      1 N          61.7435   89.9103   12.5555 N.pl3   1  UNL1       -0.2806
      2 H          61.0725   90.1091   13.2479 H       1  UNL1        0.1551
      3 C          63.0880   91.4227    9.9953 C.3     1  UNL1        0.0553
      4 C          63.6727   91.3341   11.3738 C.ar    1  UNL1        0.0935
      5 N          64.9780   91.9251   11.8176 N.ar    1  UNL1       -0.1727
      6 N          65.1667   91.5952   13.2687 N.ar    1  UNL1       -0.2558
      7 C          63.9781   90.8003   13.7218 C.ar    1  UNL1        0.0704
      8 C          63.7524   90.2614   15.1032 C.3     1  UNL1        0.0531
      9 C          63.0547   90.6389   12.5507 C.ar    1  UNL1        0.0792
     10 C          66.3384   91.9907   14.1177 C.3     1  UNL1        0.1076
     11 C          67.7341   91.8249   13.5938 C.3     1  UNL1        0.0415
     12 C          68.9058   92.2204   14.4428 C.3     1  UNL1        0.0706
     13 N          68.6817   92.7818   15.8156 N.3     1  UNL1       -0.2974
     14 C          67.2859   92.9476   16.3395 C.3     1  UNL1        0.0706
     15 C          66.1143   92.5521   15.4905 C.3     1  UNL1        0.0415
     16 H          69.1133   93.7059   15.8299 H       1  UNL1        0.1232
     17 C          61.4548   88.8789   11.5054 C.ar    1  UNL1        0.2208
     18 N          60.4198   89.1487   10.4537 N.ar    1  UNL1       -0.2111
     19 C          60.1310   88.1173    9.4036 C.ar    1  UNL1        0.1147
     20 C          60.8772   86.8161    9.4051 C.ar    1  UNL1        0.0946
     21 CL         60.5884   85.7846    8.3550 Cl      1  UNL1       -0.0790
     22 C          61.9122   86.5462   10.4569 C.ar    1  UNL1        0.0992
     23 N          62.2009   87.5777   11.5069 N.ar    1  UNL1       -0.2126
     24 C          62.6584   85.2450   10.4585 C.ar    1  UNL1        0.0572
     25 C          63.2931   84.5912    9.2670 C.ar    1  UNL1        0.1235
     26 N          63.9278   83.3112    9.7240 N.ar    1  UNL1       -0.1634
     27 N          63.6853   83.1740   11.1979 N.ar    1  UNL1       -0.2281
     28 C          64.0775   82.1151   12.1853 C.ar    1  UNL1        0.1004
     29 C          63.6852   82.2514   13.6266 C.ar    1  UNL1        0.0207
     30 C          62.9006   83.4465   14.0805 C.ar    1  UNL1        0.0031
     31 C          62.5084   84.5054   13.0931 C.ar    1  UNL1        0.0193
     32 C          62.9007   84.3691   11.6518 C.ar    1  UNL1        0.0858
@<TRIPOS>BOND
     1     3     4    1
     2     4     5   ar
     3     5     6   ar
     4     6    10    1
     5    10    11    1
     6    11    12    1
     7    12    13    1
     8    13    14    1
     9    14    15    1
    10     6     7   ar
    11     7     8    1
    12     7     9   ar
    13     9     1    1
    14     1    17    1
    15    17    18   ar
    16    18    19   ar
    17    19    20   ar
    18    20    21    1
    19    20    22   ar
    20    22    24    1
    21    24    25   ar
    22    25    26   ar
    23    26    27   ar
    24    27    28   ar
    25    28    29   ar
    26    29    30   ar
    27    30    31   ar
    28    31    32   ar
    29    22    23   ar
    30     9     4   ar
    31    23    17   ar
    32    15    10    1
    33    32    24   ar
    34    32    27   ar
    35    13    16    1
    36     1     2    1
@<TRIPOS>MOLECULE
*****
 32 36 0 0 0
SMALL
GASTEIGER

@<TRIPOS>ATOM
      1 N          62.6135   90.6150   13.1261 N.pl3   1  UNL1       -0.2806
      2 H          61.8025   91.0565   13.4677 H       1  UNL1        0.1551
      3 C          64.0621   87.8016   13.9230 C.3     1  UNL1        0.0553
      4 C          63.1689   88.0291   12.7396 C.ar    1  UNL1        0.0935
      5 N          62.7848   87.0034   11.7148 N.ar    1  UNL1       -0.1727
      6 N          61.8814   87.6627   10.7150 N.ar    1  UNL1       -0.2558
      7 C          61.7073   89.0958   11.1220 C.ar    1  UNL1        0.0704
      8 C          60.8824   90.1223   10.4039 C.3     1  UNL1        0.0531
      9 C          62.5030   89.3224   12.3733 C.ar    1  UNL1        0.0792
     10 C          61.2612   87.0044    9.5184 C.3     1  UNL1        0.1076
     11 C          62.0722   86.0671    8.6735 C.3     1  UNL1        0.0415
     12 C          61.4519   85.4088    7.4769 C.3     1  UNL1        0.0706
     13 N          60.0206   85.6878    7.1252 N.3     1  UNL1       -0.2974
     14 C          59.2096   86.6250    7.9701 C.3     1  UNL1        0.0706
     15 C          59.8300   87.2833    9.1667 C.3     1  UNL1        0.0415
     16 H          59.5355   84.7906    7.1321 H       1  UNL1        0.1232
     17 C          63.9594   91.2351   13.3584 C.ar    1  UNL1        0.2208
     18 N          64.5254   91.3009   14.7459 N.ar    1  UNL1       -0.2111
     19 C          65.8713   91.9209   14.9782 C.ar    1  UNL1        0.1147
     20 C          66.6513   92.4752   13.8230 C.ar    1  UNL1        0.0946
     21 CL         67.9972   93.0953   14.0553 Cl      1  UNL1       -0.0790
     22 C          66.0852   92.4094   12.4354 C.ar    1  UNL1        0.0992
     23 N          64.7393   91.7894   12.2032 N.ar    1  UNL1       -0.2126
     24 C          66.8651   92.9637   11.2802 C.ar    1  UNL1        0.0572
     25 C          67.9563   92.2562   10.5326 C.ar    1  UNL1        0.1235
     26 N          68.4563   93.1781    9.4602 N.ar    1  UNL1       -0.1634
     27 N          67.6741   94.4552    9.5449 N.ar    1  UNL1       -0.2281
     28 C          67.7304   95.7216    8.7431 C.ar    1  UNL1        0.1004
     29 C          66.8032   96.8556    9.0661 C.ar    1  UNL1        0.0207
     30 C          65.8197   96.7231   10.1910 C.ar    1  UNL1        0.0031
     31 C          65.7635   95.4566   10.9928 C.ar    1  UNL1        0.0193
     32 C          66.6907   94.3227   10.6697 C.ar    1  UNL1        0.0858
@<TRIPOS>BOND
     1     3     4    1
     2     4     5   ar
     3     5     6   ar
     4     6    10    1
     5    10    11    1
     6    11    12    1
     7    12    13    1
     8    13    14    1
     9    14    15    1
    10     6     7   ar
    11     7     8    1
    12     7     9   ar
    13     9     1    1
    14     1    17    1
    15    17    18   ar
    16    18    19   ar
    17    19    20   ar
    18    20    21    1
    19    20    22   ar
    20    22    24    1
    21    24    25   ar
    22    25    26   ar
    23    26    27   ar
    24    27    28   ar
    25    28    29   ar
    26    29    30   ar
    27    30    31   ar
    28    31    32   ar
    29    22    23   ar
    30     9     4   ar
    31    23    17   ar
    32    15    10    1
    33    32    24   ar
    34    32    27   ar
    35    13    16    1
    36     1     2    1
@<TRIPOS>MOLECULE
*****
 32 36 0 0 0
SMALL
GASTEIGER

@<TRIPOS>ATOM
      1 N          63.3097   90.7359   13.5713 N.pl3   1  UNL1       -0.2806
      2 H          62.6146   91.1430   14.1373 H       1  UNL1        0.1551
      3 C          65.7334   91.7192   15.5227 C.3     1  UNL1        0.0553
      4 C          65.6190   91.9932   14.0524 C.ar    1  UNL1        0.0935
      5 N          66.5985   92.7672   13.2209 N.ar    1  UNL1       -0.1727
      6 N          66.0898   92.7936   11.8099 N.ar    1  UNL1       -0.2558
      7 C          64.7959   92.0359   11.7695 C.ar    1  UNL1        0.0704
      8 C          63.9428   91.8121   10.5563 C.3     1  UNL1        0.0531
      9 C          64.5049   91.5411   13.1554 C.ar    1  UNL1        0.0792
     10 C          66.7578   93.4606   10.6442 C.3     1  UNL1        0.1076
     11 C          66.4748   94.9023   10.3420 C.3     1  UNL1        0.0415
     12 C          67.1428   95.5694    9.1762 C.3     1  UNL1        0.0706
     13 N          68.0936   94.7946    8.3127 N.3     1  UNL1       -0.2974
     14 C          68.3765   93.3528    8.6149 C.3     1  UNL1        0.0706
     15 C          67.7085   92.6859    9.7807 C.3     1  UNL1        0.0415
     16 H          68.9881   95.2836    8.3473 H       1  UNL1        0.1232
     17 C          63.1736   89.3103   13.1250 C.ar    1  UNL1        0.2208
     18 N          63.9070   88.2231   13.8531 N.ar    1  UNL1       -0.2111
     19 C          63.7708   86.7976   13.4067 C.ar    1  UNL1        0.1147
     20 C          62.9013   86.4592   12.2323 C.ar    1  UNL1        0.0946
     21 CL         62.7651   85.0336   11.7859 Cl      1  UNL1       -0.0790
     22 C          62.1678   87.5465   11.5041 C.ar    1  UNL1        0.0992
     23 N          62.3040   88.9719   11.9505 N.ar    1  UNL1       -0.2126
     24 C          61.2983   87.2081   10.3296 C.ar    1  UNL1        0.0572
     25 C          59.8874   87.6700   10.1150 C.ar    1  UNL1        0.1235
     26 N          59.4042   87.0957    8.8163 N.ar    1  UNL1       -0.1634
     27 N          60.5164   86.2789    8.2282 N.ar    1  UNL1       -0.2281
     28 C          60.6144   85.4810    6.9619 C.ar    1  UNL1        0.1004
     29 C          61.8831   84.7524    6.6309 C.ar    1  UNL1        0.0207
     30 C          63.0538   84.8218    7.5662 C.ar    1  UNL1        0.0031
     31 C          62.9557   85.6198    8.8325 C.ar    1  UNL1        0.0193
     32 C          61.6871   86.3484    9.1635 C.ar    1  UNL1        0.0858
@<TRIPOS>BOND
     1     3     4    1
     2     4     5   ar
     3     5     6   ar
     4     6    10    1
     5    10    11    1
     6    11    12    1
     7    12    13    1
     8    13    14    1
     9    14    15    1
    10     6     7   ar
    11     7     8    1
    12     7     9   ar
    13     9     1    1
    14     1    17    1
    15    17    18   ar
    16    18    19   ar
    17    19    20   ar
    18    20    21    1
    19    20    22   ar
    20    22    24    1
    21    24    25   ar
    22    25    26   ar
    23    26    27   ar
    24    27    28   ar
    25    28    29   ar
    26    29    30   ar
    27    30    31   ar
    28    31    32   ar
    29    22    23   ar
    30     9     4   ar
    31    23    17   ar
    32    15    10    1
    33    32    24   ar
    34    32    27   ar
    35    13    16    1
    36     1     2    1
@<TRIPOS>MOLECULE
*****
 32 36 0 0 0
SMALL
GASTEIGER

@<TRIPOS>ATOM
      1 N          64.1520   90.6012   15.3763 N.pl3   1  UNL1       -0.2806
      2 H          64.2104   91.2608   16.1049 H       1  UNL1        0.1551
      3 C          62.2214   90.0361   12.8067 C.3     1  UNL1        0.0553
      4 C          63.5344   90.7608   12.7805 C.ar    1  UNL1        0.0935
      5 N          64.1906   91.3531   11.5686 N.ar    1  UNL1       -0.1727
      6 N          65.4836   91.9789   12.0007 N.ar    1  UNL1       -0.2558
      7 C          65.6265   91.7734   13.4796 C.ar    1  UNL1        0.0704
      8 C          66.7727   92.2390   14.3278 C.3     1  UNL1        0.0531
      9 C          64.4219   91.0206   13.9616 C.ar    1  UNL1        0.0792
     10 C          66.4618   92.6860   11.1102 C.3     1  UNL1        0.1076
     11 C          66.2578   94.1330   10.7718 C.3     1  UNL1        0.0415
     12 C          67.2361   94.8402    9.8813 C.3     1  UNL1        0.0706
     13 N          68.4183   94.1002    9.3293 N.3     1  UNL1       -0.2974
     14 C          68.6223   92.6532    9.6676 C.3     1  UNL1        0.0706
     15 C          67.6440   91.9462   10.5582 C.3     1  UNL1        0.0415
     16 H          69.2509   94.5970    9.6463 H       1  UNL1        0.1232
     17 C          63.7931   89.1770   15.6809 C.ar    1  UNL1        0.2208
     18 N          63.1713   88.8259   17.0000 N.ar    1  UNL1       -0.2111
     19 C          62.8124   87.4017   17.3046 C.ar    1  UNL1        0.1147
     20 C          63.0753   86.3286   16.2901 C.ar    1  UNL1        0.0946
     21 CL         62.7164   84.9044   16.5947 Cl      1  UNL1       -0.0790
     22 C          63.6971   86.6797   14.9708 C.ar    1  UNL1        0.0992
     23 N          64.0560   88.1039   14.6663 N.ar    1  UNL1       -0.2126
     24 C          63.9600   85.6066   13.9563 C.ar    1  UNL1        0.0572
     25 C          64.8384   84.4062   14.1501 C.ar    1  UNL1        0.1235
     26 N          64.8118   83.6032   12.8834 N.ar    1  UNL1       -0.1634
     27 N          63.9171   84.3073   11.9068 N.ar    1  UNL1       -0.2281
     28 C          63.5137   83.9809   10.4994 C.ar    1  UNL1        0.1004
     29 C          62.5839   84.8927    9.7552 C.ar    1  UNL1        0.0207
     30 C          62.0574   86.1309   10.4183 C.ar    1  UNL1        0.0031
     31 C          62.4608   86.4573   11.8257 C.ar    1  UNL1        0.0193
     32 C          63.3906   85.5455   12.5699 C.ar    1  UNL1        0.0858
@<TRIPOS>BOND
     1     3     4    1
     2     4     5   ar
     3     5     6   ar
     4     6    10    1
     5    10    11    1
     6    11    12    1
     7    12    13    1
     8    13    14    1
     9    14    15    1
    10     6     7   ar
    11     7     8    1
    12     7     9   ar
    13     9     1    1
    14     1    17    1
    15    17    18   ar
    16    18    19   ar
    17    19    20   ar
    18    20    21    1
    19    20    22   ar
    20    22    24    1
    21    24    25   ar
    22    25    26   ar
    23    26    27   ar
    24    27    28   ar
    25    28    29   ar
    26    29    30   ar
    27    30    31   ar
    28    31    32   ar
    29    22    23   ar
    30     9     4   ar
    31    23    17   ar
    32    15    10    1
    33    32    24   ar
    34    32    27   ar
    35    13    16    1
    36     1     2    1
@<TRIPOS>MOLECULE
*****
 32 36 0 0 0
SMALL
GASTEIGER

@<TRIPOS>ATOM
      1 N          64.4710   87.3644   14.5750 N.pl3   1  UNL1       -0.2806
      2 H          65.2999   87.6240   15.0384 H       1  UNL1        0.1551
      3 C          62.8476   86.7769   17.3442 C.3     1  UNL1        0.0553
      4 C          63.0331   85.8134   16.2096 C.ar    1  UNL1        0.0935
      5 N          62.5050   84.4108   16.1486 N.ar    1  UNL1       -0.1727
      6 N          62.9248   83.8139   14.8380 N.ar    1  UNL1       -0.2558
      7 C          63.7124   84.8477   14.0890 C.ar    1  UNL1        0.0704
      8 C          64.3254   84.6759   12.7309 C.3     1  UNL1        0.0531
      9 C          63.7793   86.0835   14.9366 C.ar    1  UNL1        0.0792
     10 C          62.6120   82.4269   14.3603 C.3     1  UNL1        0.1076
     11 C          63.7064   81.5553   13.8194 C.3     1  UNL1        0.0415
     12 C          63.3936   80.1681   13.3417 C.3     1  UNL1        0.0706
     13 N          61.9864   79.6528   13.4050 N.3     1  UNL1       -0.2974
     14 C          60.8920   80.5243   13.9459 C.3     1  UNL1        0.0706
     15 C          61.2049   81.9114   14.4235 C.3     1  UNL1        0.0415
     16 H          62.0063   78.8124   13.9828 H       1  UNL1        0.1232
     17 C          63.8998   88.2497   13.5073 C.ar    1  UNL1        0.2208
     18 N          64.2788   89.7000   13.4535 N.ar    1  UNL1       -0.2111
     19 C          63.7076   90.5853   12.3858 C.ar    1  UNL1        0.1147
     20 C          62.7574   90.0203   11.3719 C.ar    1  UNL1        0.0946
     21 CL         62.1862   90.9056   10.3042 Cl      1  UNL1       -0.0790
     22 C          62.3784   88.5699   11.4258 C.ar    1  UNL1        0.0992
     23 N          62.9496   87.6847   12.4934 N.ar    1  UNL1       -0.2126
     24 C          61.4282   88.0049   10.4119 C.ar    1  UNL1        0.0572
     25 C          59.9879   88.3887   10.2434 C.ar    1  UNL1        0.1235
     26 N          59.4211   87.5779    9.1160 N.ar    1  UNL1       -0.1634
     27 N          60.5109   86.6930    8.5876 N.ar    1  UNL1       -0.2281
     28 C          60.5341   85.6810    7.4807 C.ar    1  UNL1        0.1004
     29 C          61.7977   84.9329    7.1748 C.ar    1  UNL1        0.0207
     30 C          63.0381   85.1968    7.9758 C.ar    1  UNL1        0.0031
     31 C          63.0150   86.2088    9.0827 C.ar    1  UNL1        0.0193
     32 C          61.7514   86.9569    9.3886 C.ar    1  UNL1        0.0858
@<TRIPOS>BOND
     1     3     4    1
     2     4     5   ar
     3     5     6   ar
     4     6    10    1
     5    10    11    1
     6    11    12    1
     7    12    13    1
     8    13    14    1
     9    14    15    1
    10     6     7   ar
    11     7     8    1
    12     7     9   ar
    13     9     1    1
    14     1    17    1
    15    17    18   ar
    16    18    19   ar
    17    19    20   ar
    18    20    21    1
    19    20    22   ar
    20    22    24    1
    21    24    25   ar
    22    25    26   ar
    23    26    27   ar
    24    27    28   ar
    25    28    29   ar
    26    29    30   ar
    27    30    31   ar
    28    31    32   ar
    29    22    23   ar
    30     9     4   ar
    31    23    17   ar
    32    15    10    1
    33    32    24   ar
    34    32    27   ar
    35    13    16    1
    36     1     2    1
@<TRIPOS>MOLECULE
*****
 32 36 0 0 0
SMALL
GASTEIGER

@<TRIPOS>ATOM
      1 N          63.0690   90.2749   13.3426 N.pl3   1  UNL1       -0.2806
      2 H          62.2935   90.7701   13.6928 H       1  UNL1        0.1551
      3 C          61.4093   89.6323   10.6074 C.3     1  UNL1        0.0553
      4 C          62.1149   88.6261   11.4674 C.ar    1  UNL1        0.0935
      5 N          62.1815   87.1480   11.2213 N.ar    1  UNL1       -0.1727
      6 N          62.9856   86.5297   12.3264 N.ar    1  UNL1       -0.2558
      7 C          63.4159   87.6258   13.2556 C.ar    1  UNL1        0.0704
      8 C          64.2397   87.4561   14.4975 C.3     1  UNL1        0.0531
      9 C          62.8778   88.9215   12.7248 C.ar    1  UNL1        0.0792
     10 C          63.3036   85.0715   12.4761 C.3     1  UNL1        0.1076
     11 C          63.6192   84.2446   11.2651 C.3     1  UNL1        0.0415
     12 C          63.9372   82.7863   11.4147 C.3     1  UNL1        0.0706
     13 N          63.9394   82.1550   12.7755 N.3     1  UNL1       -0.2974
     14 C          63.6238   82.9819   13.9865 C.3     1  UNL1        0.0706
     15 C          63.3058   84.4402   13.8367 C.3     1  UNL1        0.0415
     16 H          64.8719   81.7673   12.9186 H       1  UNL1        0.1232
     17 C          64.4416   90.8737   13.4270 C.ar    1  UNL1        0.2208
     18 N          65.1998   90.8321   14.7206 N.ar    1  UNL1       -0.2111
     19 C          66.5725   91.4310   14.8051 C.ar    1  UNL1        0.1147
     20 C          67.1870   92.0715   13.5959 C.ar    1  UNL1        0.0946
     21 CL         68.5596   92.6704   13.6803 Cl      1  UNL1       -0.0790
     22 C          66.4287   92.1131   12.3022 C.ar    1  UNL1        0.0992
     23 N          65.0562   91.5142   12.2178 N.ar    1  UNL1       -0.2126
     24 C          67.0433   92.7536   11.0930 C.ar    1  UNL1        0.0572
     25 C          67.9585   92.0852   10.1103 C.ar    1  UNL1        0.1235
     26 N          68.3313   93.0935    9.0642 N.ar    1  UNL1       -0.1634
     27 N          67.6464   94.3850    9.4003 N.ar    1  UNL1       -0.2281
     28 C          67.6448   95.7252    8.7266 C.ar    1  UNL1        0.1004
     29 C          66.8472   96.8553    9.3067 C.ar    1  UNL1        0.0207
     30 C          66.0511   96.6452   10.5606 C.ar    1  UNL1        0.0031
     31 C          66.0527   95.3050   11.2343 C.ar    1  UNL1        0.0193
     32 C          66.8504   94.1749   10.6541 C.ar    1  UNL1        0.0858
@<TRIPOS>BOND
     1     3     4    1
     2     4     5   ar
     3     5     6   ar
     4     6    10    1
     5    10    11    1
     6    11    12    1
     7    12    13    1
     8    13    14    1
     9    14    15    1
    10     6     7   ar
    11     7     8    1
    12     7     9   ar
    13     9     1    1
    14     1    17    1
    15    17    18   ar
    16    18    19   ar
    17    19    20   ar
    18    20    21    1
    19    20    22   ar
    20    22    24    1
    21    24    25   ar
    22    25    26   ar
    23    26    27   ar
    24    27    28   ar
    25    28    29   ar
    26    29    30   ar
    27    30    31   ar
    28    31    32   ar
    29    22    23   ar
    30     9     4   ar
    31    23    17   ar
    32    15    10    1
    33    32    24   ar
    34    32    27   ar
    35    13    16    1
    36     1     2    1
@<TRIPOS>MOLECULE
*****
 32 36 0 0 0
SMALL
GASTEIGER

@<TRIPOS>ATOM
      1 N          64.2532   86.7095   14.0328 N.pl3   1  UNL1       -0.2806
      2 H          64.9404   86.0642   14.3166 H       1  UNL1        0.1551
      3 C          63.2006   83.7192   13.2589 C.3     1  UNL1        0.0553
      4 C          62.8370   84.9919   12.5532 C.ar    1  UNL1        0.0935
      5 N          61.9258   85.1135   11.3679 N.ar    1  UNL1       -0.1727
      6 N          61.8464   86.5633   10.9911 N.ar    1  UNL1       -0.2558
      7 C          62.7086   87.3377   11.9435 C.ar    1  UNL1        0.0704
      8 C          62.9212   88.8224   11.9324 C.3     1  UNL1        0.0531
      9 C          63.3209   86.3665   12.9089 C.ar    1  UNL1        0.0792
     10 C          61.0455   87.1379    9.8604 C.3     1  UNL1        0.1076
     11 C          60.8595   88.6223    9.7516 C.3     1  UNL1        0.0415
     12 C          60.0585   89.1969    8.6208 C.3     1  UNL1        0.0706
     13 N          59.4437   88.2869    7.5991 N.3     1  UNL1       -0.2974
     14 C          59.6297   86.8025    7.7080 C.3     1  UNL1        0.0706
     15 C          60.4307   86.2280    8.8387 C.3     1  UNL1        0.0415
     16 H          59.8199   88.5651    6.6927 H       1  UNL1        0.1232
     17 C          64.1385   88.0358   14.7241 C.ar    1  UNL1        0.2208
     18 N          63.2546   88.1804   15.9273 N.ar    1  UNL1       -0.2111
     19 C          63.1400   89.5066   16.6187 C.ar    1  UNL1        0.1147
     20 C          63.9093   90.6882   16.1068 C.ar    1  UNL1        0.0946
     21 CL         63.7946   92.0144   16.7982 Cl      1  UNL1       -0.0790
     22 C          64.7932   90.5436   14.9036 C.ar    1  UNL1        0.0992
     23 N          64.9078   89.2174   14.2123 N.ar    1  UNL1       -0.2126
     24 C          65.5625   91.7252   14.3917 C.ar    1  UNL1        0.0572
     25 C          66.5436   92.5454   15.1758 C.ar    1  UNL1        0.1235
     26 N          67.0732   93.6211   14.2746 N.ar    1  UNL1       -0.1634
     27 N          66.4195   93.4658   12.9335 N.ar    1  UNL1       -0.2281
     28 C          66.5538   94.2399   11.6557 C.ar    1  UNL1        0.1004
     29 C          65.7544   93.8423   10.4504 C.ar    1  UNL1        0.0207
     30 C          64.8208   92.6705   10.5228 C.ar    1  UNL1        0.0031
     31 C          64.6865   91.8964   11.8005 C.ar    1  UNL1        0.0193
     32 C          65.4858   92.2940   13.0059 C.ar    1  UNL1        0.0858
@<TRIPOS>BOND
     1     3     4    1
     2     4     5   ar
     3     5     6   ar
     4     6    10    1
     5    10    11    1
     6    11    12    1
     7    12    13    1
     8    13    14    1
     9    14    15    1
    10     6     7   ar
    11     7     8    1
    12     7     9   ar
    13     9     1    1
    14     1    17    1
    15    17    18   ar
    16    18    19   ar
    17    19    20   ar
    18    20    21    1
    19    20    22   ar
    20    22    24    1
    21    24    25   ar
    22    25    26   ar
    23    26    27   ar
    24    27    28   ar
    25    28    29   ar
    26    29    30   ar
    27    30    31   ar
    28    31    32   ar
    29    22    23   ar
    30     9     4   ar
    31    23    17   ar
    32    15    10    1
    33    32    24   ar
    34    32    27   ar
    35    13    16    1
    36     1     2    1
@<TRIPOS>MOLECULE
*****
 32 36 0 0 0
SMALL
GASTEIGER

@<TRIPOS>ATOM
      1 N          62.1146   89.6574   12.2226 N.pl3   1  UNL1       -0.2806
      2 H          61.2059   89.9533   12.4593 H       1  UNL1        0.1551
      3 C          63.6933   90.2914   15.0074 C.3     1  UNL1        0.0553
      4 C          64.0002   90.8859   13.6649 C.ar    1  UNL1        0.0935
      5 N          65.0867   91.8763   13.3667 N.ar    1  UNL1       -0.1727
      6 N          65.0325   92.1969   11.9023 N.ar    1  UNL1       -0.2558
      7 C          63.9125   91.4048   11.2955 C.ar    1  UNL1        0.0704
      8 C          63.5025   91.4201    9.8528 C.3     1  UNL1        0.0531
      9 C          63.2745   90.5945   12.3848 C.ar    1  UNL1        0.0792
     10 C          65.9390   93.1435   11.1728 C.3     1  UNL1        0.1076
     11 C          65.7973   94.6231   11.3745 C.3     1  UNL1        0.0415
     12 C          66.7039   95.5697   10.6450 C.3     1  UNL1        0.0706
     13 N          67.7521   95.0366    9.7139 N.3     1  UNL1       -0.2974
     14 C          67.8938   93.5570    9.5122 C.3     1  UNL1        0.0706
     15 C          66.9872   92.6105   10.2417 C.3     1  UNL1        0.0415
     16 H          68.6509   95.3743   10.0581 H       1  UNL1        0.1232
     17 C          62.3390   88.2695   11.6998 C.ar    1  UNL1        0.2208
     18 N          62.0545   87.9550   10.2610 N.ar    1  UNL1       -0.2111
     19 C          62.2789   86.5671    9.7382 C.ar    1  UNL1        0.1147
     20 C          62.7878   85.4937   10.6542 C.ar    1  UNL1        0.0946
     21 CL         63.0122   84.1058   10.1314 Cl      1  UNL1       -0.0790
     22 C          63.0723   85.8083   12.0931 C.ar    1  UNL1        0.0992
     23 N          62.8479   87.1962   12.6158 N.ar    1  UNL1       -0.2126
     24 C          63.5812   84.7350   13.0091 C.ar    1  UNL1        0.0572
     25 C          64.5741   84.9200   14.1181 C.ar    1  UNL1        0.1235
     26 N          64.7930   83.5875   14.7712 N.ar    1  UNL1       -0.1634
     27 N          63.9354   82.5790   14.0659 N.ar    1  UNL1       -0.2281
     28 C          63.7397   81.1066   14.2746 C.ar    1  UNL1        0.1004
     29 C          62.7951   80.3434   13.3943 C.ar    1  UNL1        0.0207
     30 C          62.0461   81.0525   12.3052 C.ar    1  UNL1        0.0031
     31 C          62.2418   82.5250   12.0965 C.ar    1  UNL1        0.0193
     32 C          63.1864   83.2882   12.9768 C.ar    1  UNL1        0.0858
@<TRIPOS>BOND
     1     3     4    1
     2     4     5   ar
     3     5     6   ar
     4     6    10    1
     5    10    11    1
     6    11    12    1
     7    12    13    1
     8    13    14    1
     9    14    15    1
    10     6     7   ar
    11     7     8    1
    12     7     9   ar
    13     9     1    1
    14     1    17    1
    15    17    18   ar
    16    18    19   ar
    17    19    20   ar
    18    20    21    1
    19    20    22   ar
    20    22    24    1
    21    24    25   ar
    22    25    26   ar
    23    26    27   ar
    24    27    28   ar
    25    28    29   ar
    26    29    30   ar
    27    30    31   ar
    28    31    32   ar
    29    22    23   ar
    30     9     4   ar
    31    23    17   ar
    32    15    10    1
    33    32    24   ar
    34    32    27   ar
    35    13    16    1
    36     1     2    1
