@<TRIPOS>MOLECULE
*****
 21 24 0 0 0
SMALL
GASTEIGER

@<TRIPOS>ATOM
      1 F          66.7901   95.1437   11.8252 F       1  UNL1       -0.2042
      2 C          66.1805   93.8780   12.3510 C.ar    1  UNL1        0.1402
      3 C          66.5394   93.3857   13.7217 C.ar    1  UNL1        0.0301
      4 C          65.9298   92.1200   14.2475 C.ar    1  UNL1        0.0088
      5 C          64.9614   91.3466   13.4026 C.ar    1  UNL1        0.0290
      6 S          64.2059   90.0748   13.6509 S.2     1  UNL1       -0.0902
      7 C          63.3800   89.7810   12.4336 C.ar    1  UNL1        0.0195
      8 C          63.6252   90.8712   11.4330 C.ar    1  UNL1       -0.0169
      9 C          64.6026   91.8388   12.0319 C.ar    1  UNL1        0.0045
     10 C          65.2121   93.1045   11.5061 C.ar    1  UNL1        0.0298
     11 C          62.9268   90.8421   10.1059 C.3     1  UNL1        0.0439
     12 C          61.9832   89.7227    9.7793 C.3     1  UNL1        0.0774
     13 N          61.7381   88.6325   10.7800 N.3     1  UNL1       -0.2644
     14 C          62.4365   88.6616   12.1072 C.3     1  UNL1        0.1056
     15 C          60.7945   87.5130   10.4534 C.3     1  UNL1        0.1010
     16 C          61.0532   86.6370    9.2636 C.ar    1  UNL1        0.0131
     17 C          62.4182   86.0557    9.0429 C.ar    1  UNL1        0.0002
     18 C          62.6769   85.1797    7.8530 C.ar    1  UNL1        0.0204
     19 C          61.5706   84.8851    6.8839 C.ar    1  UNL1        0.0989
     20 N          60.2056   85.4665    7.1046 N.ar    1  UNL1       -0.2426
     21 C          59.9469   86.3425    8.2945 C.ar    1  UNL1        0.0959
@<TRIPOS>BOND
     1     1     2    1
     2     2     3   ar
     3     3     4   ar
     4     4     5   ar
     5     5     6   ar
     6     6     7   ar
     7     7     8   ar
     8     8     9   ar
     9     9    10   ar
    10     8    11    1
    11    11    12    1
    12    12    13    1
    13    13    15    1
    14    15    16    1
    15    16    17   ar
    16    17    18   ar
    17    18    19   ar
    18    19    20   ar
    19    20    21   ar
    20    13    14    1
    21    10     2   ar
    22    21    16   ar
    23     9     5   ar
    24    14     7    1
@<TRIPOS>MOLECULE
*****
 21 24 0 0 0
SMALL
GASTEIGER

@<TRIPOS>ATOM
      1 F          58.6121   89.5465    6.2943 F       1  UNL1       -0.2042
      2 C          59.3205   88.6731    7.2869 C.ar    1  UNL1        0.1402
      3 C          59.2190   87.1804    7.1792 C.ar    1  UNL1        0.0301
      4 C          59.9275   86.3070    8.1718 C.ar    1  UNL1        0.0088
      5 C          60.7373   86.9262    9.2721 C.ar    1  UNL1        0.0290
      6 S          61.5396   86.3254   10.3880 S.2     1  UNL1       -0.0902
      7 C          62.1370   87.4468   11.1854 C.ar    1  UNL1        0.0195
      8 C          61.7038   88.7406   10.5623 C.ar    1  UNL1       -0.0169
      9 C          60.8387   88.4189    9.3798 C.ar    1  UNL1        0.0045
     10 C          60.1303   89.2923    8.3872 C.ar    1  UNL1        0.0298
     11 C          62.1530   90.0445   11.1521 C.3     1  UNL1        0.0439
     12 C          63.0354   90.0546   12.3650 C.3     1  UNL1        0.0774
     13 N          63.4685   88.7608   12.9882 N.3     1  UNL1       -0.2644
     14 C          63.0193   87.4568   12.3983 C.3     1  UNL1        0.1056
     15 C          64.3509   88.7709   14.2012 C.3     1  UNL1        0.1010
     16 C          64.6101   90.0564   14.9295 C.ar    1  UNL1        0.0131
     17 C          65.8389   90.8590   14.6202 C.ar    1  UNL1        0.0002
     18 C          66.0981   92.1445   15.3484 C.ar    1  UNL1        0.0204
     19 C          65.1284   92.6273   16.3859 C.ar    1  UNL1        0.0989
     20 N          63.8995   91.8247   16.6952 N.ar    1  UNL1       -0.2426
     21 C          63.6404   90.5392   15.9670 C.ar    1  UNL1        0.0959
@<TRIPOS>BOND
     1     1     2    1
     2     2     3   ar
     3     3     4   ar
     4     4     5   ar
     5     5     6   ar
     6     6     7   ar
     7     7     8   ar
     8     8     9   ar
     9     9    10   ar
    10     8    11    1
    11    11    12    1
    12    12    13    1
    13    13    15    1
    14    15    16    1
    15    16    17   ar
    16    17    18   ar
    17    18    19   ar
    18    19    20   ar
    19    20    21   ar
    20    13    14    1
    21    10     2   ar
    22    21    16   ar
    23     9     5   ar
    24    14     7    1
@<TRIPOS>MOLECULE
*****
 21 24 0 0 0
SMALL
GASTEIGER

@<TRIPOS>ATOM
      1 F          62.3819   81.9805   11.5697 F       1  UNL1       -0.2042
      2 C          62.9375   82.9660   12.5547 C.ar    1  UNL1        0.1402
      3 C          63.5351   82.4830   13.8429 C.ar    1  UNL1        0.0301
      4 C          64.0908   83.4684   14.8279 C.ar    1  UNL1        0.0088
      5 C          64.0489   84.9368   14.5246 C.ar    1  UNL1        0.0290
      6 S          64.5157   86.1350   15.2970 S.2     1  UNL1       -0.0902
      7 C          64.2066   87.3585   14.4860 C.ar    1  UNL1        0.0195
      8 C          63.5488   86.9165   13.2125 C.ar    1  UNL1       -0.0169
      9 C          63.4513   85.4198   13.2364 C.ar    1  UNL1        0.0045
     10 C          62.8957   84.4344   12.2514 C.ar    1  UNL1        0.0298
     11 C          63.1235   87.9339   12.1957 C.3     1  UNL1        0.0439
     12 C          63.3561   89.3933   12.4525 C.3     1  UNL1        0.0774
     13 N          64.0139   89.8353   13.7260 N.3     1  UNL1       -0.2644
     14 C          64.4391   88.8178   14.7428 C.3     1  UNL1        0.1056
     15 C          64.2464   91.2948   13.9828 C.3     1  UNL1        0.1010
     16 C          65.6178   91.7836   14.3442 C.ar    1  UNL1        0.0131
     17 C          65.8761   92.3520   15.7081 C.ar    1  UNL1        0.0002
     18 C          67.2474   92.8407   16.0695 C.ar    1  UNL1        0.0204
     19 C          68.3603   92.7610   15.0671 C.ar    1  UNL1        0.0989
     20 N          68.1020   92.1925   13.7032 N.ar    1  UNL1       -0.2426
     21 C          66.7307   91.7038   13.3418 C.ar    1  UNL1        0.0959
@<TRIPOS>BOND
     1     1     2    1
     2     2     3   ar
     3     3     4   ar
     4     4     5   ar
     5     5     6   ar
     6     6     7   ar
     7     7     8   ar
     8     8     9   ar
     9     9    10   ar
    10     8    11    1
    11    11    12    1
    12    12    13    1
    13    13    15    1
    14    15    16    1
    15    16    17   ar
    16    17    18   ar
    17    18    19   ar
    18    19    20   ar
    19    20    21   ar
    20    13    14    1
    21    10     2   ar
    22    21    16   ar
    23     9     5   ar
    24    14     7    1
@<TRIPOS>MOLECULE
*****
 21 24 0 0 0
SMALL
GASTEIGER

@<TRIPOS>ATOM
      1 F          67.1246   92.1564   16.5873 F       1  UNL1       -0.2042
      2 C          66.6464   92.2464   15.1684 C.ar    1  UNL1        0.1402
      3 C          67.3952   93.0861   14.1764 C.ar    1  UNL1        0.0301
      4 C          66.9169   93.1761   12.7575 C.ar    1  UNL1        0.0088
      5 C          65.6898   92.4264   12.3307 C.ar    1  UNL1        0.0290
      6 S          64.9848   92.3237   11.0107 S.2     1  UNL1       -0.0902
      7 C          63.8002   91.4204   11.1870 C.ar    1  UNL1        0.0195
      8 C          63.7731   90.9650   12.6159 C.ar    1  UNL1       -0.0169
      9 C          64.9410   91.5867   13.3227 C.ar    1  UNL1        0.0045
     10 C          65.4193   91.4967   14.7416 C.ar    1  UNL1        0.0298
     11 C          62.6886   90.0430   13.0887 C.3     1  UNL1        0.0439
     12 C          61.6311   89.5764   12.1327 C.3     1  UNL1        0.0774
     13 N          61.6582   90.0319   10.7038 N.3     1  UNL1       -0.2644
     14 C          62.7428   90.9539   10.2309 C.3     1  UNL1        0.1056
     15 C          60.6007   89.5653    9.7476 C.3     1  UNL1        0.1010
     16 C          60.7190   88.2189    9.0972 C.ar    1  UNL1        0.0131
     17 C          61.9361   87.3752    9.3354 C.ar    1  UNL1        0.0002
     18 C          62.0544   86.0287    8.6850 C.ar    1  UNL1        0.0204
     19 C          60.9556   85.5260    7.7964 C.ar    1  UNL1        0.0989
     20 N          59.7384   86.3697    7.5582 N.ar    1  UNL1       -0.2426
     21 C          59.6201   87.7162    8.2086 C.ar    1  UNL1        0.0959
@<TRIPOS>BOND
     1     1     2    1
     2     2     3   ar
     3     3     4   ar
     4     4     5   ar
     5     5     6   ar
     6     6     7   ar
     7     7     8   ar
     8     8     9   ar
     9     9    10   ar
    10     8    11    1
    11    11    12    1
    12    12    13    1
    13    13    15    1
    14    15    16    1
    15    16    17   ar
    16    17    18   ar
    17    18    19   ar
    18    19    20   ar
    19    20    21   ar
    20    13    14    1
    21    10     2   ar
    22    21    16   ar
    23     9     5   ar
    24    14     7    1
@<TRIPOS>MOLECULE
*****
 21 24 0 0 0
SMALL
GASTEIGER

@<TRIPOS>ATOM
      1 F          62.4162   81.4113   11.5182 F       1  UNL1       -0.2042
      2 C          62.9564   82.4460   12.4603 C.ar    1  UNL1        0.1402
      3 C          63.6280   82.0237   13.7333 C.ar    1  UNL1        0.0301
      4 C          64.1682   83.0585   14.6753 C.ar    1  UNL1        0.0088
      5 C          64.0368   84.5156   14.3443 C.ar    1  UNL1        0.0290
      6 S          64.4688   85.7533   15.0732 S.2     1  UNL1       -0.0902
      7 C          64.0642   86.9407   14.2507 C.ar    1  UNL1        0.0195
      8 C          63.3821   86.4367   13.0135 C.ar    1  UNL1       -0.0169
      9 C          63.3652   84.9379   13.0714 C.ar    1  UNL1        0.0045
     10 C          62.8250   83.9031   12.1293 C.ar    1  UNL1        0.0298
     11 C          62.8646   87.4077   11.9940 C.3     1  UNL1        0.0439
     12 C          63.0291   88.8826   12.2118 C.3     1  UNL1        0.0774
     13 N          63.7112   89.3866   13.4491 N.3     1  UNL1       -0.2644
     14 C          64.2287   88.4156   14.4685 C.3     1  UNL1        0.1056
     15 C          63.8757   90.8616   13.6669 C.3     1  UNL1        0.1010
     16 C          64.8471   91.6396   12.8296 C.ar    1  UNL1        0.0131
     17 C          64.4966   92.0031   11.4171 C.ar    1  UNL1        0.0002
     18 C          65.4680   92.7812   10.5798 C.ar    1  UNL1        0.0204
     19 C          66.7898   93.1956   11.1549 C.ar    1  UNL1        0.0989
     20 N          67.1404   92.8321   12.5674 N.ar    1  UNL1       -0.2426
     21 C          66.1690   92.0541   13.4047 C.ar    1  UNL1        0.0959
@<TRIPOS>BOND
     1     1     2    1
     2     2     3   ar
     3     3     4   ar
     4     4     5   ar
     5     5     6   ar
     6     6     7   ar
     7     7     8   ar
     8     8     9   ar
     9     9    10   ar
    10     8    11    1
    11    11    12    1
    12    12    13    1
    13    13    15    1
    14    15    16    1
    15    16    17   ar
    16    17    18   ar
    17    18    19   ar
    18    19    20   ar
    19    20    21   ar
    20    13    14    1
    21    10     2   ar
    22    21    16   ar
    23     9     5   ar
    24    14     7    1
@<TRIPOS>MOLECULE
*****
 21 24 0 0 0
SMALL
GASTEIGER

@<TRIPOS>ATOM
      1 F          58.6726   89.7287    6.1211 F       1  UNL1       -0.2042
      2 C          59.3058   88.8247    7.1368 C.ar    1  UNL1        0.1402
      3 C          59.0822   87.3432    7.0653 C.ar    1  UNL1        0.0301
      4 C          59.7154   86.4392    8.0811 C.ar    1  UNL1        0.0088
      5 C          60.5724   87.0167    9.1683 C.ar    1  UNL1        0.0290
      6 S          61.3215   86.3796   10.3009 S.2     1  UNL1       -0.0902
      7 C          62.0082   87.4674   11.0725 C.ar    1  UNL1        0.0195
      8 C          61.6835   88.7767   10.4167 C.ar    1  UNL1       -0.0169
      9 C          60.7961   88.4981    9.2398 C.ar    1  UNL1        0.0045
     10 C          60.1628   89.4021    8.2240 C.ar    1  UNL1        0.0298
     11 C          62.2378   90.0534   10.9758 C.3     1  UNL1        0.0439
     12 C          63.1168   90.0208   12.1908 C.3     1  UNL1        0.0774
     13 N          63.4416   88.7115   12.8466 N.3     1  UNL1       -0.2644
     14 C          62.8873   87.4347   12.2874 C.3     1  UNL1        0.1056
     15 C          64.3207   88.6788   14.0616 C.3     1  UNL1        0.1010
     16 C          63.9215   87.8614   15.2544 C.ar    1  UNL1        0.0131
     17 C          63.2353   88.5160   16.4165 C.ar    1  UNL1        0.0002
     18 C          62.8361   87.6986   17.6092 C.ar    1  UNL1        0.0204
     19 C          63.1233   86.2267   17.6397 C.ar    1  UNL1        0.0989
     20 N          63.8095   85.5721   16.4776 N.ar    1  UNL1       -0.2426
     21 C          64.2086   86.3895   15.2849 C.ar    1  UNL1        0.0959
@<TRIPOS>BOND
     1     1     2    1
     2     2     3   ar
     3     3     4   ar
     4     4     5   ar
     5     5     6   ar
     6     6     7   ar
     7     7     8   ar
     8     8     9   ar
     9     9    10   ar
    10     8    11    1
    11    11    12    1
    12    12    13    1
    13    13    15    1
    14    15    16    1
    15    16    17   ar
    16    17    18   ar
    17    18    19   ar
    18    19    20   ar
    19    20    21   ar
    20    13    14    1
    21    10     2   ar
    22    21    16   ar
    23     9     5   ar
    24    14     7    1
@<TRIPOS>MOLECULE
*****
 21 24 0 0 0
SMALL
GASTEIGER

@<TRIPOS>ATOM
      1 F          64.2573   80.6300   14.1282 F       1  UNL1       -0.2042
      2 C          63.8061   81.8603   13.3982 C.ar    1  UNL1        0.1402
      3 C          63.0980   81.7340   12.0819 C.ar    1  UNL1        0.0301
      4 C          62.6468   82.9643   11.3520 C.ar    1  UNL1        0.0088
      5 C          62.9035   84.3208   11.9383 C.ar    1  UNL1        0.0290
      6 S          62.5780   85.7021   11.4527 S.2     1  UNL1       -0.0902
      7 C          63.0848   86.6822   12.4689 C.ar    1  UNL1        0.0195
      8 C          63.7236   85.9065   13.5826 C.ar    1  UNL1       -0.0169
      9 C          63.6115   84.4471   13.2546 C.ar    1  UNL1        0.0045
     10 C          64.0628   83.2168   13.9846 C.ar    1  UNL1        0.0298
     11 C          64.3247   86.6293   14.7514 C.3     1  UNL1        0.0439
     12 C          64.2870   88.1278   14.8065 C.3     1  UNL1        0.0774
     13 N          63.6482   88.9035   13.6929 N.3     1  UNL1       -0.2644
     14 C          63.0471   88.1806   12.5241 C.3     1  UNL1        0.1056
     15 C          63.6105   90.4021   13.7480 C.3     1  UNL1        0.1010
     16 C          64.5713   91.2073   12.9242 C.ar    1  UNL1        0.0131
     17 C          64.2145   91.5927   11.5192 C.ar    1  UNL1        0.0002
     18 C          65.1752   92.3979   10.6954 C.ar    1  UNL1        0.0204
     19 C          66.4927   92.8176   11.2766 C.ar    1  UNL1        0.0989
     20 N          66.8495   92.4322   12.6816 N.ar    1  UNL1       -0.2426
     21 C          65.8888   91.6270   13.5055 C.ar    1  UNL1        0.0959
@<TRIPOS>BOND
     1     1     2    1
     2     2     3   ar
     3     3     4   ar
     4     4     5   ar
     5     5     6   ar
     6     6     7   ar
     7     7     8   ar
     8     8     9   ar
     9     9    10   ar
    10     8    11    1
    11    11    12    1
    12    12    13    1
    13    13    15    1
    14    15    16    1
    15    16    17   ar
    16    17    18   ar
    17    18    19   ar
    18    19    20   ar
    19    20    21   ar
    20    13    14    1
    21    10     2   ar
    22    21    16   ar
    23     9     5   ar
    24    14     7    1
@<TRIPOS>MOLECULE
*****
 21 24 0 0 0
SMALL
GASTEIGER

@<TRIPOS>ATOM
      1 F          62.3602   80.0702   11.8536 F       1  UNL1       -0.2042
      2 C          62.8608   81.2814   12.5834 C.ar    1  UNL1        0.1402
      3 C          63.6129   81.1232   13.8715 C.ar    1  UNL1        0.0301
      4 C          64.1135   82.3344   14.6012 C.ar    1  UNL1        0.0088
      5 C          63.8620   83.7037   14.0429 C.ar    1  UNL1        0.0290
      6 S          64.2311   85.0717   14.5350 S.2     1  UNL1       -0.0902
      7 C          63.7071   86.0753   13.5510 C.ar    1  UNL1        0.0195
      8 C          63.0141   85.3276   12.4507 C.ar    1  UNL1       -0.0169
      9 C          63.1098   83.8618   12.7548 C.ar    1  UNL1        0.0045
     10 C          62.6092   82.6506   12.0250 C.ar    1  UNL1        0.0298
     11 C          62.3855   86.0779   11.3143 C.3     1  UNL1        0.0439
     12 C          62.4498   87.5761   11.2780 C.3     1  UNL1        0.0774
     13 N          63.1428   88.3239   12.3783 N.3     1  UNL1       -0.2644
     14 C          63.7715   87.5734   13.5148 C.3     1  UNL1        0.1056
     15 C          63.2072   89.8221   12.3420 C.3     1  UNL1        0.1010
     16 C          63.9012   90.5698   13.4418 C.ar    1  UNL1        0.0131
     17 C          65.1743   91.3104   13.1579 C.ar    1  UNL1        0.0002
     18 C          65.8682   92.0581   14.2577 C.ar    1  UNL1        0.0204
     19 C          65.2890   92.0651   15.6412 C.ar    1  UNL1        0.0989
     20 N          64.0159   91.3244   15.9251 N.ar    1  UNL1       -0.2426
     21 C          63.3220   90.5768   14.8254 C.ar    1  UNL1        0.0959
@<TRIPOS>BOND
     1     1     2    1
     2     2     3   ar
     3     3     4   ar
     4     4     5   ar
     5     5     6   ar
     6     6     7   ar
     7     7     8   ar
     8     8     9   ar
     9     9    10   ar
    10     8    11    1
    11    11    12    1
    12    12    13    1
    13    13    15    1
    14    15    16    1
    15    16    17   ar
    16    17    18   ar
    17    18    19   ar
    18    19    20   ar
    19    20    21   ar
    20    13    14    1
    21    10     2   ar
    22    21    16   ar
    23     9     5   ar
    24    14     7    1
@<TRIPOS>MOLECULE
*****
 21 24 0 0 0
SMALL
GASTEIGER

@<TRIPOS>ATOM
      1 F          62.7540   79.8368   11.8878 F       1  UNL1       -0.2042
      2 C          63.0694   81.1904   12.4521 C.ar    1  UNL1        0.1402
      3 C          63.8566   81.3081   13.7234 C.ar    1  UNL1        0.0301
      4 C          64.1720   82.6617   14.2876 C.ar    1  UNL1        0.0088
      5 C          63.7001   83.8975   13.5805 C.ar    1  UNL1        0.0290
      6 S          63.8574   85.3557   13.8949 S.2     1  UNL1       -0.0902
      7 C          63.1673   86.1392   12.8179 C.ar    1  UNL1        0.0195
      8 C          62.5835   85.1652   11.8379 C.ar    1  UNL1       -0.0169
      9 C          62.9128   83.7798   12.3092 C.ar    1  UNL1        0.0045
     10 C          62.5974   82.4262   11.7450 C.ar    1  UNL1        0.0298
     11 C          61.8275   85.6657   10.6430 C.3     1  UNL1        0.0439
     12 C          61.6553   87.1402   10.4280 C.3     1  UNL1        0.0774
     13 N          62.2391   88.1142   11.4081 N.3     1  UNL1       -0.2644
     14 C          62.9951   87.6137   12.6030 C.3     1  UNL1        0.1056
     15 C          62.0668   89.5888   11.1931 C.3     1  UNL1        0.1010
     16 C          63.1932   90.5288   11.5058 C.ar    1  UNL1        0.0131
     17 C          63.7501   90.5956   12.8970 C.ar    1  UNL1        0.0002
     18 C          64.8764   91.5356   13.2096 C.ar    1  UNL1        0.0204
     19 C          65.4457   92.4088   12.1311 C.ar    1  UNL1        0.0989
     20 N          64.8888   92.3421   10.7400 N.ar    1  UNL1       -0.2426
     21 C          63.7625   91.4020   10.4273 C.ar    1  UNL1        0.0959
@<TRIPOS>BOND
     1     1     2    1
     2     2     3   ar
     3     3     4   ar
     4     4     5   ar
     5     5     6   ar
     6     6     7   ar
     7     7     8   ar
     8     8     9   ar
     9     9    10   ar
    10     8    11    1
    11    11    12    1
    12    12    13    1
    13    13    15    1
    14    15    16    1
    15    16    17   ar
    16    17    18   ar
    17    18    19   ar
    18    19    20   ar
    19    20    21   ar
    20    13    14    1
    21    10     2   ar
    22    21    16   ar
    23     9     5   ar
    24    14     7    1
