@<TRIPOS>MOLECULE
*****
 32 36 0 0 0
SMALL
GASTEIGER

@<TRIPOS>ATOM
      1 C          62.8557   86.8450   11.8895 C.3     1  UNL1        0.1272
      2 C          63.2391   88.1038   12.6096 C.2     1  UNL1        0.0260
      3 C          63.1172   89.5987   12.5892 C.2     1  UNL1        0.0757
      4 N          63.8594   90.1404   13.7748 N.2     1  UNL1       -0.1569
      5 N          64.4398   88.9804   14.5280 N.2     1  UNL1       -0.1631
      6 C          64.0565   87.7216   13.8079 C.3     1  UNL1        0.2225
      7 C          64.1783   86.2267   13.8283 C.2     1  UNL1        0.2581
      8 O          64.9132   85.4160   14.8543 O.2     1  UNL1       -0.2720
      9 N          63.4362   85.6849   12.6426 N.am    1  UNL1       -0.2508
     10 C          60.6187   87.2528   10.6326 C.ar    1  UNL1        0.1366
     11 C          59.7988   87.1688    9.3792 C.ar    1  UNL1        0.0366
     12 C          60.3961   86.5931    8.1295 C.ar    1  UNL1        0.0031
     13 C          61.8132   86.1014    8.1331 C.ar    1  UNL1       -0.0001
     14 C          62.6331   86.1854    9.3865 C.ar    1  UNL1        0.0007
     15 C          62.0358   86.7611   10.6362 C.ar    1  UNL1        0.0340
     16 C          58.8439   88.7534   11.7937 C.3     1  UNL1        0.2525
     17 O          60.0214   87.8285   11.8824 O.3     1  UNL1       -0.4717
     18 C          63.2987   84.2373   12.2748 C.ar    1  UNL1        0.0544
     19 C          62.4333   83.3325   13.1008 C.ar    1  UNL1        0.0150
     20 C          62.2957   81.8848   12.7330 C.ar    1  UNL1        0.0033
     21 C          63.0236   81.3419   11.5391 C.ar    1  UNL1        0.0239
     22 C          63.8891   82.2468   10.7130 C.ar    1  UNL1        0.0033
     23 C          64.0266   83.6944   11.0809 C.ar    1  UNL1        0.0150
     24 C          62.8862   79.8942   11.1712 C.ar    1  UNL1        0.1108
     25 N          62.6340   78.7627   12.1231 N.ar    1  UNL1       -0.2368
     26 C          62.5687   77.4931   11.3270 C.ar    1  UNL1        0.1064
     27 C          62.7805   77.8399    9.8831 C.ar    1  UNL1        0.0575
     28 S          62.9767   79.3239    9.7868 S.2     1  UNL1       -0.0659
     29 C          62.3823   90.4095   11.5632 C.3     1  UNL1        0.0367
     30 C          61.2054   90.5122   12.4874 C.3     1  UNL1        0.0060
     31 C          63.5593   90.3068   10.6390 C.3     1  UNL1        0.0060
     32 C          61.6474   91.2202   10.5373 C.3     1  UNL1        0.0060
@<TRIPOS>BOND
     1    16    17    1
     2    17    10    1
     3    10    11   ar
     4    11    12   ar
     5    12    13   ar
     6    13    14   ar
     7    14    15   ar
     8    15     1    1
     9     1     2    1
    10     2     3    2
    11     3    29    1
    12    29    30    1
    13    29    31    1
    14    29    32    1
    15     3     4    1
    16     4     5    2
    17     5     6    1
    18     6     7    1
    19     7     8    2
    20     7     9   am
    21     9    18    1
    22    18    19   ar
    23    19    20   ar
    24    20    21   ar
    25    21    24    1
    26    24    25   ar
    27    25    26   ar
    28    26    27   ar
    29    27    28   ar
    30    21    22   ar
    31    22    23   ar
    32    15    10   ar
    33     9     1    1
    34    23    18   ar
    35     6     2    1
    36    28    24   ar
@<TRIPOS>MOLECULE
*****
 32 36 0 0 0
SMALL
GASTEIGER

@<TRIPOS>ATOM
      1 C          63.1538   85.2111   13.3964 C.3     1  UNL1        0.1272
      2 C          62.8532   84.1003   14.3586 C.2     1  UNL1        0.0260
      3 C          62.4927   82.6479   14.4610 C.2     1  UNL1        0.0757
      4 N          62.3669   82.3031   15.9154 N.2     1  UNL1       -0.1569
      5 N          62.6496   83.5424   16.7118 N.2     1  UNL1       -0.1631
      6 C          62.9502   84.6531   15.7496 C.3     1  UNL1        0.2225
      7 C          63.3107   86.1056   15.6472 C.2     1  UNL1        0.2581
      8 O          63.5103   87.0477   16.7972 O.2     1  UNL1       -0.2720
      9 N          63.4365   86.4505   14.1927 N.am    1  UNL1       -0.2508
     10 C          62.1376   85.8242   11.0852 C.ar    1  UNL1        0.1366
     11 C          62.1529   85.7149    9.5892 C.ar    1  UNL1        0.0366
     12 C          63.1994   84.8833    8.9085 C.ar    1  UNL1        0.0031
     13 C          64.2307   84.1610    9.7238 C.ar    1  UNL1       -0.0001
     14 C          64.2155   84.2703   11.2198 C.ar    1  UNL1        0.0007
     15 C          63.1690   85.1019   11.9005 C.ar    1  UNL1        0.0340
     16 C          60.2601   87.6161   10.9676 C.3     1  UNL1        0.2525
     17 O          61.0911   86.6557   11.7658 O.3     1  UNL1       -0.4717
     18 C          63.7840   87.7980   13.6331 C.ar    1  UNL1        0.0544
     19 C          63.2671   88.2065   12.2855 C.ar    1  UNL1        0.0150
     20 C          63.6146   89.5540   11.7257 C.ar    1  UNL1        0.0033
     21 C          64.4791   90.4931   12.5136 C.ar    1  UNL1        0.0239
     22 C          64.9961   90.0847   13.8612 C.ar    1  UNL1        0.0033
     23 C          64.6485   88.7372   14.4209 C.ar    1  UNL1        0.0150
     24 C          64.8266   91.8407   11.9539 C.ar    1  UNL1        0.1108
     25 N          64.4079   92.3745   10.6161 N.ar    1  UNL1       -0.2368
     26 C          64.9764   93.7548   10.4692 C.ar    1  UNL1        0.1064
     27 C          65.7465   94.0741   11.7162 C.ar    1  UNL1        0.0575
     28 S          65.6540   92.8911   12.6338 S.2     1  UNL1       -0.0659
     29 C          62.2931   81.7058   13.3110 C.3     1  UNL1        0.0367
     30 C          63.7297   81.8821   12.9172 C.3     1  UNL1        0.0060
     31 C          60.8565   81.5294   13.7048 C.3     1  UNL1        0.0060
     32 C          62.0935   80.7636   12.1610 C.3     1  UNL1        0.0060
@<TRIPOS>BOND
     1    16    17    1
     2    17    10    1
     3    10    11   ar
     4    11    12   ar
     5    12    13   ar
     6    13    14   ar
     7    14    15   ar
     8    15     1    1
     9     1     2    1
    10     2     3    2
    11     3    29    1
    12    29    30    1
    13    29    31    1
    14    29    32    1
    15     3     4    1
    16     4     5    2
    17     5     6    1
    18     6     7    1
    19     7     8    2
    20     7     9   am
    21     9    18    1
    22    18    19   ar
    23    19    20   ar
    24    20    21   ar
    25    21    24    1
    26    24    25   ar
    27    25    26   ar
    28    26    27   ar
    29    27    28   ar
    30    21    22   ar
    31    22    23   ar
    32    15    10   ar
    33     9     1    1
    34    23    18   ar
    35     6     2    1
    36    28    24   ar
@<TRIPOS>MOLECULE
*****
 32 36 0 0 0
SMALL
GASTEIGER

@<TRIPOS>ATOM
      1 C          62.5223   86.8987   11.6752 C.3     1  UNL1        0.1272
      2 C          62.9061   88.1900   12.3348 C.2     1  UNL1        0.0260
      3 C          62.7026   89.6758   12.3040 C.2     1  UNL1        0.0757
      4 N          63.5272   90.2794   13.4020 N.2     1  UNL1       -0.1569
      5 N          64.2403   89.1667   14.1114 N.2     1  UNL1       -0.1631
      6 C          63.8565   87.8753   13.4518 C.3     1  UNL1        0.2225
      7 C          64.0600   86.3895   13.4826 C.2     1  UNL1        0.2581
      8 O          64.9346   85.6391   14.4428 O.2     1  UNL1       -0.2720
      9 N          63.2354   85.7859   12.3845 N.am    1  UNL1       -0.2508
     10 C          62.0798   86.1374    9.2308 C.ar    1  UNL1        0.1366
     11 C          61.1466   85.9854    8.0663 C.ar    1  UNL1        0.0366
     12 C          59.7227   86.4428    8.1816 C.ar    1  UNL1        0.0031
     13 C          59.2320   87.0522    9.4614 C.ar    1  UNL1       -0.0001
     14 C          60.1652   87.2041   10.6259 C.ar    1  UNL1        0.0007
     15 C          61.5891   86.7467   10.5106 C.ar    1  UNL1        0.0340
     16 C          63.9553   84.9336    7.8952 C.3     1  UNL1        0.2525
     17 O          63.5037   85.6799    9.1155 O.3     1  UNL1       -0.4717
     18 C          63.1406   84.3259   12.0539 C.ar    1  UNL1        0.0544
     19 C          62.3366   83.4096   12.9280 C.ar    1  UNL1        0.0150
     20 C          62.2418   81.9495   12.5974 C.ar    1  UNL1        0.0033
     21 C          62.9510   81.4058   11.3927 C.ar    1  UNL1        0.0239
     22 C          63.7550   82.3221   10.5186 C.ar    1  UNL1        0.0033
     23 C          63.8498   83.7821   10.8492 C.ar    1  UNL1        0.0150
     24 C          62.8562   79.9457   11.0621 C.ar    1  UNL1        0.1108
     25 N          62.5932   78.8363   12.0367 N.ar    1  UNL1       -0.2368
     26 C          62.5822   77.5437   11.2757 C.ar    1  UNL1        0.1064
     27 C          62.8384   77.8543    9.8308 C.ar    1  UNL1        0.0575
     28 S          63.0077   79.3389    9.6987 S.2     1  UNL1       -0.0659
     29 C          61.8280   90.4263   11.3438 C.3     1  UNL1        0.0367
     30 C          60.6221   90.0642   12.1592 C.3     1  UNL1        0.0060
     31 C          63.0339   90.7883   10.5284 C.3     1  UNL1        0.0060
     32 C          60.9534   91.1767   10.3836 C.3     1  UNL1        0.0060
@<TRIPOS>BOND
     1    16    17    1
     2    17    10    1
     3    10    11   ar
     4    11    12   ar
     5    12    13   ar
     6    13    14   ar
     7    14    15   ar
     8    15     1    1
     9     1     2    1
    10     2     3    2
    11     3    29    1
    12    29    30    1
    13    29    31    1
    14    29    32    1
    15     3     4    1
    16     4     5    2
    17     5     6    1
    18     6     7    1
    19     7     8    2
    20     7     9   am
    21     9    18    1
    22    18    19   ar
    23    19    20   ar
    24    20    21   ar
    25    21    24    1
    26    24    25   ar
    27    25    26   ar
    28    26    27   ar
    29    27    28   ar
    30    21    22   ar
    31    22    23   ar
    32    15    10   ar
    33     9     1    1
    34    23    18   ar
    35     6     2    1
    36    28    24   ar
