@<TRIPOS>MOLECULE
*****
 30 32 0 0 0
SMALL
GASTEIGER

@<TRIPOS>ATOM
      1 C          62.8100   89.4905   11.5747 C.2     1  UNL1        0.2657
      2 O          62.7793   88.3852   12.5883 O.2     1  UNL1       -0.2684
      3 N          61.9118   89.4328   10.3746 N.am    1  UNL1       -0.2971
      4 H          61.9320   90.1582    9.7093 H       1  UNL1        0.1500
      5 C          65.1460   92.3418   12.7905 C.ar    1  UNL1        0.2279
      6 C          64.2487   91.1732   13.0724 C.ar    1  UNL1        0.0832
      7 C          63.7389   90.6534   11.7610 C.ar    1  UNL1        0.1591
      8 N          64.3212   91.5006   10.6686 N.ar    1  UNL1       -0.1578
      9 N          65.1908   92.5441   11.3048 N.ar    1  UNL1       -0.1958
     10 C          65.9686   93.6038   10.5824 C.ar    1  UNL1        0.1132
     11 C          65.5105   95.0315   10.6261 C.ar    1  UNL1        0.0215
     12 C          66.2884   96.0912    9.9037 C.ar    1  UNL1        0.0017
     13 C          67.5242   95.7232    9.1374 C.ar    1  UNL1        0.0024
     14 C          67.9823   94.2955    9.0937 C.ar    1  UNL1        0.0312
     15 C          67.2045   93.2358    9.8161 C.ar    1  UNL1        0.1578
     16 F          67.6626   91.8081    9.7724 F       1  UNL1       -0.2026
     17 C          67.2812   92.8180   14.1921 C.3     1  UNL1        0.2542
     18 O          65.8713   93.1637   13.8145 O.3     1  UNL1       -0.4561
     19 C          60.9829   88.2699   10.1883 C.3     1  UNL1        0.0996
     20 C          61.3396   87.1708    9.2319 C.ar    1  UNL1       -0.0081
     21 C          62.6390   86.4369    9.3835 C.ar    1  UNL1       -0.0030
     22 C          62.9956   85.3378    8.4271 C.ar    1  UNL1       -0.0003
     23 C          62.0529   84.9726    7.3190 C.ar    1  UNL1       -0.0003
     24 C          60.7535   85.7065    7.1673 C.ar    1  UNL1       -0.0045
     25 C          60.3969   86.8056    8.1238 C.ar    1  UNL1       -0.0243
     26 C          59.0974   87.5395    7.9721 C.3     1  UNL1        0.0308
     27 C          59.6973   88.2060   10.9585 C.3     1  UNL1        0.0658
     28 C          59.3532   89.2916   11.9349 C.2     1  UNL1        0.0523
     29 O          59.0372   88.9460   13.3599 O.co2   1  UNL1       -0.5491
     30 O          59.3253   90.7226   11.4863 O.co2   1  UNL1       -0.5491
@<TRIPOS>UNITY_ATOM_ATTR
29 1
charge -1
@<TRIPOS>BOND
     1    17    18    1
     2    18     5    1
     3     5     6   ar
     4     6     7   ar
     5     7     1    1
     6     1     2    2
     7     1     3   am
     8     3    19    1
     9    19    27    1
    10    27    28    1
    11    28    29   ar
    12    28    30   ar
    13    19    20    1
    14    20    21   ar
    15    21    22   ar
    16    22    23   ar
    17    23    24   ar
    18    24    25   ar
    19    25    26    1
    20     7     8   ar
    21     8     9   ar
    22     9    10    1
    23    10    11   ar
    24    11    12   ar
    25    12    13   ar
    26    13    14   ar
    27    14    15   ar
    28    15    16    1
    29     9     5   ar
    30    15    10   ar
    31    25    20   ar
    32     3     4    1
@<TRIPOS>MOLECULE
*****
 30 32 0 0 0
SMALL
GASTEIGER

@<TRIPOS>ATOM
      1 C          63.0729   89.7750   12.2635 C.2     1  UNL1        0.2657
      2 O          62.4894   89.3096   13.5647 O.2     1  UNL1       -0.2684
      3 N          62.7283   89.0622   10.9894 N.am    1  UNL1       -0.2971
      4 H          63.1113   89.3676   10.1354 H       1  UNL1        0.1500
      5 C          65.4855   92.7387   12.9422 C.ar    1  UNL1        0.2279
      6 C          64.6377   91.6014   13.4298 C.ar    1  UNL1        0.0832
      7 C          64.0010   90.9531   12.2365 C.ar    1  UNL1        0.1591
      8 N          64.4552   91.6897   11.0112 N.ar    1  UNL1       -0.1578
      9 N          65.3727   92.7933   11.4474 N.ar    1  UNL1       -0.1958
     10 C          66.0572   93.7785   10.5469 C.ar    1  UNL1        0.1132
     11 C          65.5811   95.1999   10.4907 C.ar    1  UNL1        0.0215
     12 C          66.2656   96.1850    9.5903 C.ar    1  UNL1        0.0017
     13 C          67.4261   95.7489    8.7460 C.ar    1  UNL1        0.0024
     14 C          67.9022   94.3275    8.8021 C.ar    1  UNL1        0.0312
     15 C          67.2177   93.3423    9.7026 C.ar    1  UNL1        0.1578
     16 F          67.6938   91.9210    9.7588 F       1  UNL1       -0.2026
     17 C          67.1715   93.0996   14.8858 C.3     1  UNL1        0.2542
     18 O          66.3026   93.6598   13.7989 O.3     1  UNL1       -0.4561
     19 C          61.8003   87.8841   11.0165 C.3     1  UNL1        0.0996
     20 C          62.3543   86.4956   11.1407 C.ar    1  UNL1       -0.0081
     21 C          62.7460   85.9620   12.4867 C.ar    1  UNL1       -0.0030
     22 C          63.2999   84.5736   12.6109 C.ar    1  UNL1       -0.0003
     23 C          63.4621   83.7188   11.3890 C.ar    1  UNL1       -0.0003
     24 C          63.0704   84.2524   10.0430 C.ar    1  UNL1       -0.0045
     25 C          62.5165   85.6408    9.9189 C.ar    1  UNL1       -0.0243
     26 C          62.1247   86.1744    8.5728 C.3     1  UNL1        0.0308
     27 C          60.3183   88.0943   10.9194 C.3     1  UNL1        0.0658
     28 C          59.6633   89.1914   11.7053 C.2     1  UNL1        0.0523
     29 O          59.7780   90.6146   11.2458 O.co2   1  UNL1       -0.5491
     30 O          58.8937   88.8651   12.9508 O.co2   1  UNL1       -0.5491
@<TRIPOS>UNITY_ATOM_ATTR
29 1
charge -1
@<TRIPOS>BOND
     1    17    18    1
     2    18     5    1
     3     5     6   ar
     4     6     7   ar
     5     7     1    1
     6     1     2    2
     7     1     3   am
     8     3    19    1
     9    19    27    1
    10    27    28    1
    11    28    29   ar
    12    28    30   ar
    13    19    20    1
    14    20    21   ar
    15    21    22   ar
    16    22    23   ar
    17    23    24   ar
    18    24    25   ar
    19    25    26    1
    20     7     8   ar
    21     8     9   ar
    22     9    10    1
    23    10    11   ar
    24    11    12   ar
    25    12    13   ar
    26    13    14   ar
    27    14    15   ar
    28    15    16    1
    29     9     5   ar
    30    15    10   ar
    31    25    20   ar
    32     3     4    1
@<TRIPOS>MOLECULE
*****
 30 32 0 0 0
SMALL
GASTEIGER

@<TRIPOS>ATOM
      1 C          62.5709   88.9580   11.9243 C.2     1  UNL1        0.2657
      2 O          61.1277   89.1257   12.2976 O.2     1  UNL1       -0.2684
      3 N          63.0408   87.6760   11.3033 N.am    1  UNL1       -0.2971
      4 H          63.9880   87.5659   11.0583 H       1  UNL1        0.1500
      5 C          64.8050   92.1319   11.9309 C.ar    1  UNL1        0.2279
      6 C          63.7333   91.2853   11.3105 C.ar    1  UNL1        0.0832
      7 C          63.5440   90.0722   12.1721 C.ar    1  UNL1        0.1591
      8 N          64.4986   90.1690   13.3251 N.ar    1  UNL1       -0.1578
      9 N          65.2780   91.4419   13.1760 N.ar    1  UNL1       -0.1958
     10 C          66.3433   91.9378   14.1083 C.ar    1  UNL1        0.1132
     11 C          65.9757   92.4106   15.4836 C.ar    1  UNL1        0.0215
     12 C          67.0409   92.9066   16.4159 C.ar    1  UNL1        0.0017
     13 C          68.4739   92.9297   15.9729 C.ar    1  UNL1        0.0024
     14 C          68.8415   92.4569   14.5977 C.ar    1  UNL1        0.0312
     15 C          67.7762   91.9610   13.6653 C.ar    1  UNL1        0.1578
     16 F          68.1438   91.4882   12.2901 F       1  UNL1       -0.2026
     17 C          66.4743   93.4611   10.4488 C.3     1  UNL1        0.2542
     18 O          65.3143   93.4389   11.3995 O.3     1  UNL1       -0.4561
     19 C          62.0677   86.5617   11.0555 C.3     1  UNL1        0.0996
     20 C          61.2355   86.5564    9.8074 C.ar    1  UNL1       -0.0081
     21 C          59.9122   87.2622    9.7853 C.ar    1  UNL1       -0.0030
     22 C          59.0801   87.2568    8.5373 C.ar    1  UNL1       -0.0003
     23 C          59.5713   86.5456    7.3114 C.ar    1  UNL1       -0.0003
     24 C          60.8947   85.8398    7.3335 C.ar    1  UNL1       -0.0045
     25 C          61.7268   85.8452    8.5815 C.ar    1  UNL1       -0.0243
     26 C          63.0502   85.1394    8.6036 C.3     1  UNL1        0.0308
     27 C          61.9267   85.4528   12.0557 C.3     1  UNL1        0.0658
     28 C          63.0969   85.0569   12.9065 C.2     1  UNL1        0.0523
     29 O          63.6792   83.6797   12.7872 O.co2   1  UNL1       -0.5491
     30 O          63.6848   86.0383   13.8767 O.co2   1  UNL1       -0.5491
@<TRIPOS>UNITY_ATOM_ATTR
29 1
charge -1
@<TRIPOS>BOND
     1    17    18    1
     2    18     5    1
     3     5     6   ar
     4     6     7   ar
     5     7     1    1
     6     1     2    2
     7     1     3   am
     8     3    19    1
     9    19    27    1
    10    27    28    1
    11    28    29   ar
    12    28    30   ar
    13    19    20    1
    14    20    21   ar
    15    21    22   ar
    16    22    23   ar
    17    23    24   ar
    18    24    25   ar
    19    25    26    1
    20     7     8   ar
    21     8     9   ar
    22     9    10    1
    23    10    11   ar
    24    11    12   ar
    25    12    13   ar
    26    13    14   ar
    27    14    15   ar
    28    15    16    1
    29     9     5   ar
    30    15    10   ar
    31    25    20   ar
    32     3     4    1
@<TRIPOS>MOLECULE
*****
 30 32 0 0 0
SMALL
GASTEIGER

@<TRIPOS>ATOM
      1 C          62.6260   89.4079   11.8386 C.2     1  UNL1        0.2657
      2 O          61.2251   89.5611   12.3526 O.2     1  UNL1       -0.2684
      3 N          63.0507   88.1237   11.1901 N.am    1  UNL1       -0.2971
      4 H          63.9701   88.0232   10.8527 H       1  UNL1        0.1500
      5 C          65.1114   92.1844   12.9241 C.ar    1  UNL1        0.2279
      6 C          64.1876   91.0503   13.2559 C.ar    1  UNL1        0.0832
      7 C          63.6021   90.5389   11.9731 C.ar    1  UNL1        0.1591
      8 N          64.1640   91.3570   10.8484 N.ar    1  UNL1       -0.1578
      9 N          65.0969   92.3740   11.4361 N.ar    1  UNL1       -0.1958
     10 C          65.8780   93.4004   10.6704 C.ar    1  UNL1        0.1132
     11 C          65.4088   94.8247   10.6316 C.ar    1  UNL1        0.0215
     12 C          66.1899   95.8510    9.8659 C.ar    1  UNL1        0.0017
     13 C          67.4402   95.4532    9.1389 C.ar    1  UNL1        0.0024
     14 C          67.9094   94.0290    9.1777 C.ar    1  UNL1        0.0312
     15 C          67.1283   93.0026    9.9434 C.ar    1  UNL1        0.1578
     16 F          67.5975   91.5784    9.9822 F       1  UNL1       -0.2026
     17 C          66.0572   92.5106   15.3218 C.3     1  UNL1        0.2542
     18 O          65.9097   92.9880   13.9075 O.3     1  UNL1       -0.4561
     19 C          62.0746   86.9928   11.0556 C.3     1  UNL1        0.0996
     20 C          61.2284   86.8750    9.8226 C.ar    1  UNL1       -0.0081
     21 C          59.9291   87.6189    9.7308 C.ar    1  UNL1       -0.0030
     22 C          59.0830   87.5011    8.4979 C.ar    1  UNL1       -0.0003
     23 C          59.5361   86.6394    7.3568 C.ar    1  UNL1       -0.0003
     24 C          60.8353   85.8954    7.4486 C.ar    1  UNL1       -0.0045
     25 C          61.6815   86.0132    8.6815 C.ar    1  UNL1       -0.0243
     26 C          62.9808   85.2693    8.7734 C.3     1  UNL1        0.0308
     27 C          61.9446   85.9795   12.1540 C.3     1  UNL1        0.0658
     28 C          63.1736   85.3781   12.7688 C.2     1  UNL1        0.0523
     29 O          63.7542   84.1159   12.2035 O.co2   1  UNL1       -0.5491
     30 O          63.8220   86.0390   13.9490 O.co2   1  UNL1       -0.5491
@<TRIPOS>UNITY_ATOM_ATTR
29 1
charge -1
@<TRIPOS>BOND
     1    17    18    1
     2    18     5    1
     3     5     6   ar
     4     6     7   ar
     5     7     1    1
     6     1     2    2
     7     1     3   am
     8     3    19    1
     9    19    27    1
    10    27    28    1
    11    28    29   ar
    12    28    30   ar
    13    19    20    1
    14    20    21   ar
    15    21    22   ar
    16    22    23   ar
    17    23    24   ar
    18    24    25   ar
    19    25    26    1
    20     7     8   ar
    21     8     9   ar
    22     9    10    1
    23    10    11   ar
    24    11    12   ar
    25    12    13   ar
    26    13    14   ar
    27    14    15   ar
    28    15    16    1
    29     9     5   ar
    30    15    10   ar
    31    25    20   ar
    32     3     4    1
@<TRIPOS>MOLECULE
*****
 30 32 0 0 0
SMALL
GASTEIGER

@<TRIPOS>ATOM
      1 C          64.2859   91.2616   12.2950 C.2     1  UNL1        0.2657
      2 O          64.0317   91.8640   13.6450 O.2     1  UNL1       -0.2684
      3 N          65.2993   91.8787   11.3772 N.am    1  UNL1       -0.2971
      4 H          65.4662   91.4833   10.4911 H       1  UNL1        0.1500
      5 C          62.5848   87.8060   11.8155 C.ar    1  UNL1        0.2279
      6 C          63.4467   88.7432   12.6084 C.ar    1  UNL1        0.0832
      7 C          63.5267   90.0423   11.8628 C.ar    1  UNL1        0.1591
      8 N          62.7143   89.9079   10.6090 N.ar    1  UNL1       -0.1578
      9 N          62.1321   88.5259   10.5798 N.ar    1  UNL1       -0.1958
     10 C          61.2519   87.9625    9.5038 C.ar    1  UNL1        0.1132
     11 C          61.5077   86.5840    8.9707 C.ar    1  UNL1        0.0215
     12 C          60.6275   86.0206    7.8947 C.ar    1  UNL1        0.0017
     13 C          59.4913   86.8358    7.3518 C.ar    1  UNL1        0.0024
     14 C          59.2355   88.2143    7.8850 C.ar    1  UNL1        0.0312
     15 C          60.1157   88.7777    8.9609 C.ar    1  UNL1        0.1578
     16 F          59.8598   90.1562    9.4941 F       1  UNL1       -0.2026
     17 C          63.2439   85.5384   12.8988 C.3     1  UNL1        0.2542
     18 O          62.2367   86.3964   12.1922 O.3     1  UNL1       -0.4561
     19 C          66.0585   93.0980   11.8094 C.3     1  UNL1        0.0996
     20 C          66.3549   94.1865   10.8208 C.ar    1  UNL1       -0.0081
     21 C          65.6827   95.5211   10.9507 C.ar    1  UNL1       -0.0030
     22 C          65.9792   96.6096    9.9621 C.ar    1  UNL1       -0.0003
     23 C          66.9478   96.3634    8.8436 C.ar    1  UNL1       -0.0003
     24 C          67.6201   95.0288    8.7137 C.ar    1  UNL1       -0.0045
     25 C          67.3236   93.9404    9.7022 C.ar    1  UNL1       -0.0243
     26 C          67.9958   92.6057    9.5723 C.3     1  UNL1        0.0308
     27 C          66.5213   93.2288   13.2302 C.3     1  UNL1        0.0658
     28 C          67.5058   92.2462   13.7918 C.2     1  UNL1        0.0523
     29 O          68.6737   91.7983   12.9641 O.co2   1  UNL1       -0.5491
     30 O          67.3223   91.7116   15.1813 O.co2   1  UNL1       -0.5491
@<TRIPOS>UNITY_ATOM_ATTR
29 1
charge -1
@<TRIPOS>BOND
     1    17    18    1
     2    18     5    1
     3     5     6   ar
     4     6     7   ar
     5     7     1    1
     6     1     2    2
     7     1     3   am
     8     3    19    1
     9    19    27    1
    10    27    28    1
    11    28    29   ar
    12    28    30   ar
    13    19    20    1
    14    20    21   ar
    15    21    22   ar
    16    22    23   ar
    17    23    24   ar
    18    24    25   ar
    19    25    26    1
    20     7     8   ar
    21     8     9   ar
    22     9    10    1
    23    10    11   ar
    24    11    12   ar
    25    12    13   ar
    26    13    14   ar
    27    14    15   ar
    28    15    16    1
    29     9     5   ar
    30    15    10   ar
    31    25    20   ar
    32     3     4    1
@<TRIPOS>MOLECULE
*****
 30 32 0 0 0
SMALL
GASTEIGER

@<TRIPOS>ATOM
      1 C          62.6075   90.1725   10.6768 C.2     1  UNL1        0.2657
      2 O          61.8430   90.6305    9.4703 O.2     1  UNL1       -0.2684
      3 N          62.2685   88.8641   11.3274 N.am    1  UNL1       -0.2971
      4 H          62.7702   88.5635   12.1193 H       1  UNL1        0.1500
      5 C          65.4032   92.7472   11.4642 C.ar    1  UNL1        0.2279
      6 C          64.3501   92.1953   10.5496 C.ar    1  UNL1        0.0832
      7 C          63.7109   91.0229   11.2329 C.ar    1  UNL1        0.1591
      8 N          64.3689   90.8502   12.5698 N.ar    1  UNL1       -0.1578
      9 N          65.4148   91.9159   12.7128 N.ar    1  UNL1       -0.1958
     10 C          66.3143   92.1152   13.8965 C.ar    1  UNL1        0.1132
     11 C          65.7293   92.4665   15.2323 C.ar    1  UNL1        0.0215
     12 C          66.6288   92.6658   16.4160 C.ar    1  UNL1        0.0017
     13 C          68.1133   92.5139   16.2638 C.ar    1  UNL1        0.0024
     14 C          68.6983   92.1627   14.9280 C.ar    1  UNL1        0.0312
     15 C          67.7988   91.9633   13.7443 C.ar    1  UNL1        0.1578
     16 F          68.3838   91.6121   12.4084 F       1  UNL1       -0.2026
     17 C          67.0980   93.9662    9.9177 C.3     1  UNL1        0.2542
     18 O          66.2891   93.9238   11.1802 O.3     1  UNL1       -0.4561
     19 C          61.1650   88.0137   10.7714 C.3     1  UNL1        0.0996
     20 C          61.4643   86.9957    9.7111 C.ar    1  UNL1       -0.0081
     21 C          62.6183   86.0527    9.8811 C.ar    1  UNL1       -0.0030
     22 C          62.9175   85.0347    8.8209 C.ar    1  UNL1       -0.0003
     23 C          62.0627   84.9598    7.5905 C.ar    1  UNL1       -0.0003
     24 C          60.9087   85.9028    7.4205 C.ar    1  UNL1       -0.0045
     25 C          60.6095   86.9207    8.4807 C.ar    1  UNL1       -0.0243
     26 C          59.4554   87.8638    8.3107 C.3     1  UNL1        0.0308
     27 C          59.7623   88.1813   11.2756 C.3     1  UNL1        0.0658
     28 C          59.4054   89.3692   12.1191 C.2     1  UNL1        0.0523
     29 O          59.2101   89.2078   13.5975 O.co2   1  UNL1       -0.5491
     30 O          59.2438   90.7186   11.4841 O.co2   1  UNL1       -0.5491
@<TRIPOS>UNITY_ATOM_ATTR
29 1
charge -1
@<TRIPOS>BOND
     1    17    18    1
     2    18     5    1
     3     5     6   ar
     4     6     7   ar
     5     7     1    1
     6     1     2    2
     7     1     3   am
     8     3    19    1
     9    19    27    1
    10    27    28    1
    11    28    29   ar
    12    28    30   ar
    13    19    20    1
    14    20    21   ar
    15    21    22   ar
    16    22    23   ar
    17    23    24   ar
    18    24    25   ar
    19    25    26    1
    20     7     8   ar
    21     8     9   ar
    22     9    10    1
    23    10    11   ar
    24    11    12   ar
    25    12    13   ar
    26    13    14   ar
    27    14    15   ar
    28    15    16    1
    29     9     5   ar
    30    15    10   ar
    31    25    20   ar
    32     3     4    1
@<TRIPOS>MOLECULE
*****
 30 32 0 0 0
SMALL
GASTEIGER

@<TRIPOS>ATOM
      1 C          63.7559   90.3591   12.7349 C.2     1  UNL1        0.2657
      2 O          63.1397   91.1164   13.8737 O.2     1  UNL1       -0.2684
      3 N          64.9595   90.9119   12.0307 N.am    1  UNL1       -0.2971
      4 H          65.3639   90.4148   11.2833 H       1  UNL1        0.1500
      5 C          61.8061   87.3948   11.1614 C.ar    1  UNL1        0.2279
      6 C          62.0812   88.8642   11.2839 C.ar    1  UNL1        0.0832
      7 C          63.1686   89.0491   12.3005 C.ar    1  UNL1        0.1591
      8 N          63.5655   87.6938   12.8063 N.ar    1  UNL1       -0.1578
      9 N          62.7234   86.6714   12.1023 N.ar    1  UNL1       -0.1958
     10 C          62.7875   85.1864   12.3038 C.ar    1  UNL1        0.1132
     11 C          62.5863   84.6058   13.6722 C.ar    1  UNL1        0.0215
     12 C          62.6504   83.1208   13.8737 C.ar    1  UNL1        0.0017
     13 C          62.9155   82.2164   12.7068 C.ar    1  UNL1        0.0024
     14 C          63.1167   82.7969   11.3384 C.ar    1  UNL1        0.0312
     15 C          63.0526   84.2819   11.1369 C.ar    1  UNL1        0.1578
     16 F          63.2538   84.8625    9.7685 F       1  UNL1       -0.2026
     17 C          60.5524   87.3223    8.8869 C.3     1  UNL1        0.2542
     18 O          60.7917   86.7601   10.2568 O.3     1  UNL1       -0.4561
     19 C          65.5468   92.2219   12.4652 C.3     1  UNL1        0.0996
     20 C          66.4114   92.2871   13.6892 C.ar    1  UNL1       -0.0081
     21 C          65.8106   92.6566   15.0130 C.ar    1  UNL1       -0.0030
     22 C          66.6752   92.7218   16.2370 C.ar    1  UNL1       -0.0003
     23 C          68.1406   92.4174   16.1372 C.ar    1  UNL1       -0.0003
     24 C          68.7414   92.0479   14.8134 C.ar    1  UNL1       -0.0045
     25 C          67.8768   91.9827   13.5895 C.ar    1  UNL1       -0.0243
     26 C          68.4776   91.6132   12.2656 C.3     1  UNL1        0.0308
     27 C          65.2695   93.4668   11.6756 C.3     1  UNL1        0.0658
     28 C          66.2945   94.5604   11.6152 C.2     1  UNL1        0.0523
     29 O          66.2392   95.6951   12.5946 O.co2   1  UNL1       -0.5491
     30 O          67.3747   94.5192   10.5752 O.co2   1  UNL1       -0.5491
@<TRIPOS>UNITY_ATOM_ATTR
29 1
charge -1
@<TRIPOS>BOND
     1    17    18    1
     2    18     5    1
     3     5     6   ar
     4     6     7   ar
     5     7     1    1
     6     1     2    2
     7     1     3   am
     8     3    19    1
     9    19    27    1
    10    27    28    1
    11    28    29   ar
    12    28    30   ar
    13    19    20    1
    14    20    21   ar
    15    21    22   ar
    16    22    23   ar
    17    23    24   ar
    18    24    25   ar
    19    25    26    1
    20     7     8   ar
    21     8     9   ar
    22     9    10    1
    23    10    11   ar
    24    11    12   ar
    25    12    13   ar
    26    13    14   ar
    27    14    15   ar
    28    15    16    1
    29     9     5   ar
    30    15    10   ar
    31    25    20   ar
    32     3     4    1
@<TRIPOS>MOLECULE
*****
 30 32 0 0 0
SMALL
GASTEIGER

@<TRIPOS>ATOM
      1 C          63.0216   90.1364   10.8047 C.2     1  UNL1        0.2657
      2 O          62.3350   90.4766    9.5151 O.2     1  UNL1       -0.2684
      3 N          62.7001   88.8517   11.5093 N.am    1  UNL1       -0.2971
      4 H          63.1507   88.6284   12.3557 H       1  UNL1        0.1500
      5 C          65.5008   92.9863   11.6968 C.ar    1  UNL1        0.2279
      6 C          64.4928   92.3678   10.7742 C.ar    1  UNL1        0.0832
      7 C          64.0295   91.0807   11.3896 C.ar    1  UNL1        0.1591
      8 N          64.7512   90.9038   12.6926 N.ar    1  UNL1       -0.1578
      9 N          65.6606   92.0815   12.8825 N.ar    1  UNL1       -0.1958
     10 C          66.5699   92.3137   14.0526 C.ar    1  UNL1        0.1132
     11 C          68.0423   92.4979   13.8333 C.ar    1  UNL1        0.0215
     12 C          68.9517   92.7300   15.0034 C.ar    1  UNL1        0.0017
     13 C          68.3886   92.7780   16.3928 C.ar    1  UNL1        0.0024
     14 C          66.9162   92.5938   16.6122 C.ar    1  UNL1        0.0312
     15 C          66.0068   92.3616   15.4421 C.ar    1  UNL1        0.1578
     16 F          64.5344   92.1774   15.6615 F       1  UNL1       -0.2026
     17 C          65.5948   95.3549   10.6332 C.3     1  UNL1        0.2542
     18 O          66.2224   94.2822   11.4731 O.3     1  UNL1       -0.4561
     19 C          61.6921   87.9074   10.9244 C.3     1  UNL1        0.0996
     20 C          62.1487   86.6571   10.2327 C.ar    1  UNL1       -0.0081
     21 C          62.1491   86.5864    8.7344 C.ar    1  UNL1       -0.0030
     22 C          62.6057   85.3362    8.0427 C.ar    1  UNL1       -0.0003
     23 C          63.0619   84.1567    8.8493 C.ar    1  UNL1       -0.0003
     24 C          63.0615   84.2274   10.3476 C.ar    1  UNL1       -0.0045
     25 C          62.6049   85.4776   11.0393 C.ar    1  UNL1       -0.0243
     26 C          62.6045   85.5484   12.5377 C.3     1  UNL1        0.0308
     27 C          60.2275   88.2132   11.0312 C.3     1  UNL1        0.0658
     28 C          59.7684   89.4351   11.7704 C.2     1  UNL1        0.0523
     29 O          59.4256   90.6844   11.0144 O.co2   1  UNL1       -0.5491
     30 O          59.6522   89.4076   13.2656 O.co2   1  UNL1       -0.5491
@<TRIPOS>UNITY_ATOM_ATTR
29 1
charge -1
@<TRIPOS>BOND
     1    17    18    1
     2    18     5    1
     3     5     6   ar
     4     6     7   ar
     5     7     1    1
     6     1     2    2
     7     1     3   am
     8     3    19    1
     9    19    27    1
    10    27    28    1
    11    28    29   ar
    12    28    30   ar
    13    19    20    1
    14    20    21   ar
    15    21    22   ar
    16    22    23   ar
    17    23    24   ar
    18    24    25   ar
    19    25    26    1
    20     7     8   ar
    21     8     9   ar
    22     9    10    1
    23    10    11   ar
    24    11    12   ar
    25    12    13   ar
    26    13    14   ar
    27    14    15   ar
    28    15    16    1
    29     9     5   ar
    30    15    10   ar
    31    25    20   ar
    32     3     4    1
@<TRIPOS>MOLECULE
*****
 30 32 0 0 0
SMALL
GASTEIGER

@<TRIPOS>ATOM
      1 C          64.1521   89.4916   14.2352 C.2     1  UNL1        0.2657
      2 O          62.6533   89.5415   14.2724 O.2     1  UNL1       -0.2684
      3 N          64.8659   88.1963   14.4858 N.am    1  UNL1       -0.2971
      4 H          65.8495   88.1636   14.4615 H       1  UNL1        0.1500
      5 C          66.3217   92.7100   14.2316 C.ar    1  UNL1        0.2279
      6 C          65.6845   91.5603   14.9542 C.ar    1  UNL1        0.0832
      7 C          64.9370   90.7371   13.9476 C.ar    1  UNL1        0.1591
      8 N          65.1122   91.3779   12.6027 N.ar    1  UNL1       -0.1578
      9 N          65.9680   92.5972   12.7782 N.ar    1  UNL1       -0.1958
     10 C          66.3952   93.5385   11.6912 C.ar    1  UNL1        0.1132
     11 C          66.0171   94.9883   11.7631 C.ar    1  UNL1        0.0215
     12 C          66.4442   95.9295   10.6761 C.ar    1  UNL1        0.0017
     13 C          67.2495   95.4210    9.5173 C.ar    1  UNL1        0.0024
     14 C          67.6276   93.9712    9.4454 C.ar    1  UNL1        0.0312
     15 C          67.2005   93.0299   10.5324 C.ar    1  UNL1        0.1578
     16 F          67.5786   91.5801   10.4605 F       1  UNL1       -0.2026
     17 C          68.4399   93.4237   15.5559 C.3     1  UNL1        0.2542
     18 O          67.1646   93.7839   14.8531 O.3     1  UNL1       -0.4561
     19 C          64.0809   86.9509   14.7735 C.3     1  UNL1        0.0996
     20 C          63.7266   86.0131   13.6576 C.ar    1  UNL1       -0.0081
     21 C          62.6844   86.4036   12.6521 C.ar    1  UNL1       -0.0030
     22 C          62.3302   85.4658   11.5363 C.ar    1  UNL1       -0.0003
     23 C          63.0182   84.1375   11.4261 C.ar    1  UNL1       -0.0003
     24 C          64.0604   83.7470   12.4316 C.ar    1  UNL1       -0.0045
     25 C          64.4147   84.6848   13.5474 C.ar    1  UNL1       -0.0243
     26 C          65.4570   84.2942   14.5530 C.3     1  UNL1        0.0308
     27 C          63.6502   86.6432   16.1770 C.3     1  UNL1        0.0658
     28 C          62.4362   85.7965   16.4204 C.2     1  UNL1        0.0523
     29 O          62.4613   84.3350   16.0835 O.co2   1  UNL1       -0.5491
     30 O          61.1971   86.4112   17.0007 O.co2   1  UNL1       -0.5491
@<TRIPOS>UNITY_ATOM_ATTR
29 1
charge -1
@<TRIPOS>BOND
     1    17    18    1
     2    18     5    1
     3     5     6   ar
     4     6     7   ar
     5     7     1    1
     6     1     2    2
     7     1     3   am
     8     3    19    1
     9    19    27    1
    10    27    28    1
    11    28    29   ar
    12    28    30   ar
    13    19    20    1
    14    20    21   ar
    15    21    22   ar
    16    22    23   ar
    17    23    24   ar
    18    24    25   ar
    19    25    26    1
    20     7     8   ar
    21     8     9   ar
    22     9    10    1
    23    10    11   ar
    24    11    12   ar
    25    12    13   ar
    26    13    14   ar
    27    14    15   ar
    28    15    16    1
    29     9     5   ar
    30    15    10   ar
    31    25    20   ar
    32     3     4    1
