@<TRIPOS>MOLECULE
*****
 33 36 0 0 0
SMALL
GASTEIGER

@<TRIPOS>ATOM
      1 C          63.9644   89.1371   14.3647 C.ar    1  UNL1        0.0187
      2 C          63.7180   89.3188   15.8331 C.ar    1  UNL1        0.0031
      3 C          63.3805   88.1342   16.6891 C.ar    1  UNL1        0.0208
      4 C          63.2894   86.7680   16.0767 C.ar    1  UNL1        0.1017
      5 N          62.9778   85.4234   16.6643 N.ar    1  UNL1       -0.2126
      6 C          63.0317   84.4108   15.5590 C.ar    1  UNL1        0.2143
      7 N          62.7842   82.9380   15.6997 N.pl3   1  UNL1       -0.3275
      8 N          63.3765   85.1295   14.2884 N.ar    1  UNL1       -0.1822
      9 C          63.5358   86.5863   14.6083 C.ar    1  UNL1        0.1026
     10 C          63.8733   87.7709   13.7523 C.ar    1  UNL1        0.0220
     11 H          62.5630   82.5579   16.5805 H       1  UNL1        0.1451
     12 H          62.8431   82.3515   14.9112 H       1  UNL1        0.1451
     13 C          65.3522   92.3472   12.6808 C.ar    1  UNL1        0.1170
     14 N          64.2905   91.9421   11.7016 N.ar    1  UNL1       -0.2312
     15 C          63.6414   90.6903   12.2133 C.ar    1  UNL1        0.0980
     16 C          64.3020   90.3218   13.5086 C.ar    1  UNL1        0.0753
     17 N          65.3593   91.3458   13.7976 N.ar    1  UNL1       -0.3408
     18 H          65.9535   91.3584   14.5824 H       1  UNL1        0.1671
     19 C          62.5274   89.9390   11.5466 C.ar    1  UNL1        0.0193
     20 C          61.1289   90.0429   12.0788 C.ar    1  UNL1        0.0038
     21 C          60.0149   89.2915   11.4122 C.ar    1  UNL1        0.0297
     22 C          60.2994   88.4363   10.2132 C.ar    1  UNL1        0.1401
     23 F          59.1854   87.6850    9.5465 F       1  UNL1       -0.2042
     24 C          61.6980   88.3324    9.6808 C.ar    1  UNL1        0.0297
     25 C          62.8119   89.0837   10.3476 C.ar    1  UNL1        0.0038
     26 C          66.0812   94.4980   11.4188 C.3     1  UNL1        0.0084
     27 C          66.2493   93.5437   12.5638 C.3     1  UNL1        0.0637
     28 S          63.5344   84.5017   12.9353 S.O2    1  UNL1        0.0667
     29 O          62.2980   85.2077   12.4634 O.2     1  UNL1       -0.1521
     30 O          64.7708   83.7956   13.4072 O.2     1  UNL1       -0.1521
     31 C          63.6924   83.8737   11.5821 C.3     1  UNL1        0.1516
     32 C          64.4668   82.5978   11.4333 C.3     1  UNL1        0.0275
     33 C          63.0759   84.5217   10.3781 C.3     1  UNL1        0.0275
@<TRIPOS>BOND
     1    26    27    1
     2    27    13    1
     3    13    14   ar
     4    14    15   ar
     5    15    19    1
     6    19    20   ar
     7    20    21   ar
     8    21    22   ar
     9    22    23    1
    10    22    24   ar
    11    24    25   ar
    12    15    16   ar
    13    16     1    1
    14     1     2   ar
    15     2     3   ar
    16     3     4   ar
    17     4     5   ar
    18     5     6   ar
    19     6     7    1
    20     6     8   ar
    21     8    28    1
    22    28    29    2
    23    28    30    2
    24    28    31    1
    25    31    32    1
    26    31    33    1
    27     8     9   ar
    28     9    10   ar
    29    16    17   ar
    30    17    13   ar
    31    25    19   ar
    32    10     1   ar
    33     9     4   ar
    34     7    11    1
    35     7    12    1
    36    17    18    1
@<TRIPOS>MOLECULE
*****
 33 36 0 0 0
SMALL
GASTEIGER

@<TRIPOS>ATOM
      1 C          64.1313   88.1212   14.0498 C.ar    1  UNL1        0.0187
      2 C          64.3950   87.3879   15.3314 C.ar    1  UNL1        0.0031
      3 C          64.1190   85.9164   15.4240 C.ar    1  UNL1        0.0208
      4 C          63.5794   85.1783   14.2349 C.ar    1  UNL1        0.1017
      5 N          63.2130   83.7383   14.0290 N.ar    1  UNL1       -0.2126
      6 C          62.7229   83.5817   12.6200 C.ar    1  UNL1        0.2143
      7 N          62.2520   82.3059   11.9869 N.pl3   1  UNL1       -0.3275
      8 N          62.7864   84.9249   11.9552 N.ar    1  UNL1       -0.1822
      9 C          63.3157   85.9116   12.9533 C.ar    1  UNL1        0.1026
     10 C          63.5917   87.3830   12.8607 C.ar    1  UNL1        0.0220
     11 H          62.2473   81.4705   12.5076 H       1  UNL1        0.1451
     12 H          61.9476   82.3041   11.0506 H       1  UNL1        0.1451
     13 C          65.3440   91.7953   14.3590 C.ar    1  UNL1        0.1170
     14 N          64.3198   91.9189   13.2700 N.ar    1  UNL1       -0.2312
     15 C          63.7409   90.5575   13.0217 C.ar    1  UNL1        0.0980
     16 C          64.4073   89.5927   13.9571 C.ar    1  UNL1        0.0753
     17 N          65.3981   90.3577   14.7836 N.ar    1  UNL1       -0.3408
     18 H          65.9814   89.9822   15.4822 H       1  UNL1        0.1671
     19 C          62.6816   90.2203   12.0147 C.ar    1  UNL1        0.0193
     20 C          61.2677   89.9926   12.4610 C.ar    1  UNL1        0.0038
     21 C          60.2084   89.6554   11.4540 C.ar    1  UNL1        0.0297
     22 C          60.5629   89.5458   10.0006 C.ar    1  UNL1        0.1401
     23 F          59.5036   89.2086    8.9936 F       1  UNL1       -0.2042
     24 C          61.9768   89.7735    9.5542 C.ar    1  UNL1        0.0297
     25 C          63.0361   90.1107   10.5613 C.ar    1  UNL1        0.0038
     26 C          67.0522   92.6675   16.1116 C.3     1  UNL1        0.0084
     27 C          66.1693   92.9132   14.9241 C.3     1  UNL1        0.0637
     28 S          62.3901   85.2281   10.5406 S.O2    1  UNL1        0.0667
     29 O          61.2497   86.0650   11.0395 O.2     1  UNL1       -0.1521
     30 O          63.5306   84.3911   10.0417 O.2     1  UNL1       -0.1521
     31 C          61.9939   85.5313    9.1259 C.3     1  UNL1        0.1516
     32 C          60.6584   86.1503    8.8375 C.3     1  UNL1        0.0275
     33 C          62.9331   85.2155    7.9999 C.3     1  UNL1        0.0275
@<TRIPOS>BOND
     1    26    27    1
     2    27    13    1
     3    13    14   ar
     4    14    15   ar
     5    15    19    1
     6    19    20   ar
     7    20    21   ar
     8    21    22   ar
     9    22    23    1
    10    22    24   ar
    11    24    25   ar
    12    15    16   ar
    13    16     1    1
    14     1     2   ar
    15     2     3   ar
    16     3     4   ar
    17     4     5   ar
    18     5     6   ar
    19     6     7    1
    20     6     8   ar
    21     8    28    1
    22    28    29    2
    23    28    30    2
    24    28    31    1
    25    31    32    1
    26    31    33    1
    27     8     9   ar
    28     9    10   ar
    29    16    17   ar
    30    17    13   ar
    31    25    19   ar
    32    10     1   ar
    33     9     4   ar
    34     7    11    1
    35     7    12    1
    36    17    18    1
@<TRIPOS>MOLECULE
*****
 33 36 0 0 0
SMALL
GASTEIGER

@<TRIPOS>ATOM
      1 C          62.8979   89.9979   12.0963 C.ar    1  UNL1        0.0187
      2 C          62.5669   89.8252   13.5491 C.ar    1  UNL1        0.0031
      3 C          63.3731   90.5408   14.5921 C.ar    1  UNL1        0.0208
      4 C          64.5103   91.4290   14.1824 C.ar    1  UNL1        0.1017
      5 N          65.4751   92.2562   14.9792 N.ar    1  UNL1       -0.2126
      6 C          66.4024   92.9401   14.0188 C.ar    1  UNL1        0.2143
      7 N          67.5245   93.8661   14.3845 N.pl3   1  UNL1       -0.3275
      8 N          66.0107   92.5356   12.6285 N.ar    1  UNL1       -0.1822
      9 C          64.8413   91.6016   12.7296 C.ar    1  UNL1        0.1026
     10 C          64.0351   90.8861   11.6866 C.ar    1  UNL1        0.0220
     11 H          67.7046   94.0718   15.3302 H       1  UNL1        0.1451
     12 H          68.0808   94.2681   13.6787 H       1  UNL1        0.1451
     13 C          60.6473   88.8401    9.1535 C.ar    1  UNL1        0.1170
     14 N          61.0549   87.5222    9.7426 N.ar    1  UNL1       -0.2312
     15 C          61.9475   87.7955   10.9166 C.ar    1  UNL1        0.0980
     16 C          62.0917   89.2823   11.0532 C.ar    1  UNL1        0.0753
     17 N          61.2881   89.9279    9.9635 N.ar    1  UNL1       -0.3408
     18 H          61.1972   90.8957    9.8074 H       1  UNL1        0.1671
     19 C          62.5843   86.7632   11.7992 C.ar    1  UNL1        0.0193
     20 C          62.3432   85.3052   11.5425 C.ar    1  UNL1        0.0038
     21 C          62.9799   84.2729   12.4251 C.ar    1  UNL1        0.0297
     22 C          63.8578   84.6986   13.5644 C.ar    1  UNL1        0.1401
     23 F          64.4945   83.6664   14.4470 F       1  UNL1       -0.2042
     24 C          64.0989   86.1568   13.8212 C.ar    1  UNL1        0.0297
     25 C          63.4621   87.1890   12.9386 C.ar    1  UNL1        0.0038
     26 C          59.0047   87.8712    7.3891 C.3     1  UNL1        0.0084
     27 C          59.7555   89.0359    7.9633 C.3     1  UNL1        0.0637
     28 S          66.6722   92.9859   11.3598 S.O2    1  UNL1        0.0667
     29 O          67.8898   92.1829   11.7097 O.2     1  UNL1       -0.1521
     30 O          65.4545   93.7889   11.0100 O.2     1  UNL1       -0.1521
     31 C          67.3337   93.4363   10.0910 C.3     1  UNL1        0.1516
     32 C          67.0691   94.8120    9.5548 C.3     1  UNL1        0.0275
     33 C          68.2595   92.5111    9.3586 C.3     1  UNL1        0.0275
@<TRIPOS>BOND
     1    26    27    1
     2    27    13    1
     3    13    14   ar
     4    14    15   ar
     5    15    19    1
     6    19    20   ar
     7    20    21   ar
     8    21    22   ar
     9    22    23    1
    10    22    24   ar
    11    24    25   ar
    12    15    16   ar
    13    16     1    1
    14     1     2   ar
    15     2     3   ar
    16     3     4   ar
    17     4     5   ar
    18     5     6   ar
    19     6     7    1
    20     6     8   ar
    21     8    28    1
    22    28    29    2
    23    28    30    2
    24    28    31    1
    25    31    32    1
    26    31    33    1
    27     8     9   ar
    28     9    10   ar
    29    16    17   ar
    30    17    13   ar
    31    25    19   ar
    32    10     1   ar
    33     9     4   ar
    34     7    11    1
    35     7    12    1
    36    17    18    1
@<TRIPOS>MOLECULE
*****
 33 36 0 0 0
SMALL
GASTEIGER

@<TRIPOS>ATOM
      1 C          63.3302   90.2165   12.2815 C.ar    1  UNL1        0.0187
      2 C          62.3544   91.1926   11.6941 C.ar    1  UNL1        0.0031
      3 C          61.2599   90.7072   10.7906 C.ar    1  UNL1        0.0208
      4 C          61.1412   89.2457   10.4744 C.ar    1  UNL1        0.1017
      5 N          60.1734   88.4784    9.6230 N.ar    1  UNL1       -0.2126
      6 C          60.5512   87.0280    9.6843 C.ar    1  UNL1        0.2143
      7 N          59.8507   85.9040    8.9800 N.pl3   1  UNL1       -0.3275
      8 N          61.7523   86.8990   10.5734 N.ar    1  UNL1       -0.1822
      9 C          62.1170   88.2696   11.0617 C.ar    1  UNL1        0.1026
     10 C          63.2115   88.7550   11.9653 C.ar    1  UNL1        0.0220
     11 H          59.0662   86.0899    8.4150 H       1  UNL1        0.1451
     12 H          60.1755   84.9803    9.0828 H       1  UNL1        0.1451
     13 C          66.2563   92.0072   14.0972 C.ar    1  UNL1        0.1170
     14 N          65.9617   90.8901   15.0541 N.ar    1  UNL1       -0.2312
     15 C          64.8297   90.0834   14.4903 C.ar    1  UNL1        0.0980
     16 C          64.4247   90.7018   13.1851 C.ar    1  UNL1        0.0753
     17 N          65.3065   91.8907   12.9421 N.ar    1  UNL1       -0.3408
     18 H          65.2684   92.4895   12.1616 H       1  UNL1        0.1671
     19 C          64.2113   88.8712   15.1211 C.ar    1  UNL1        0.0193
     20 C          63.2603   89.0264   16.2707 C.ar    1  UNL1        0.0038
     21 C          62.6418   87.8141   16.9014 C.ar    1  UNL1        0.0297
     22 C          62.9744   86.4465   16.3827 C.ar    1  UNL1        0.1401
     23 F          62.3559   85.2342   17.0134 F       1  UNL1       -0.2042
     24 C          63.9254   86.2912   15.2330 C.ar    1  UNL1        0.0297
     25 C          64.5438   87.5036   14.6023 C.ar    1  UNL1        0.0038
     26 C          67.8683   93.3513   15.6284 C.3     1  UNL1        0.0084
     27 C          67.3150   93.0563   14.2658 C.3     1  UNL1        0.0637
     28 S          62.4639   85.6234   10.9144 S.O2    1  UNL1        0.0667
     29 O          62.0457   85.7731   12.3471 O.2     1  UNL1       -0.1521
     30 O          62.8822   85.4737    9.4817 O.2     1  UNL1       -0.1521
     31 C          63.1756   84.3476   11.2554 C.3     1  UNL1        0.1516
     32 C          63.8992   83.5838   10.1863 C.3     1  UNL1        0.0275
     33 C          63.1637   83.8359   12.6652 C.3     1  UNL1        0.0275
@<TRIPOS>BOND
     1    26    27    1
     2    27    13    1
     3    13    14   ar
     4    14    15   ar
     5    15    19    1
     6    19    20   ar
     7    20    21   ar
     8    21    22   ar
     9    22    23    1
    10    22    24   ar
    11    24    25   ar
    12    15    16   ar
    13    16     1    1
    14     1     2   ar
    15     2     3   ar
    16     3     4   ar
    17     4     5   ar
    18     5     6   ar
    19     6     7    1
    20     6     8   ar
    21     8    28    1
    22    28    29    2
    23    28    30    2
    24    28    31    1
    25    31    32    1
    26    31    33    1
    27     8     9   ar
    28     9    10   ar
    29    16    17   ar
    30    17    13   ar
    31    25    19   ar
    32    10     1   ar
    33     9     4   ar
    34     7    11    1
    35     7    12    1
    36    17    18    1
@<TRIPOS>MOLECULE
*****
 33 36 0 0 0
SMALL
GASTEIGER

@<TRIPOS>ATOM
      1 C          62.2951   86.1247   10.6253 C.ar    1  UNL1        0.0187
      2 C          62.7943   84.9449    9.8450 C.ar    1  UNL1        0.0031
      3 C          63.5248   83.8376   10.5449 C.ar    1  UNL1        0.0208
      4 C          63.7562   83.9100   12.0252 C.ar    1  UNL1        0.1017
      5 N          64.4387   82.9770   12.9812 N.ar    1  UNL1       -0.2126
      6 C          64.3613   83.5802   14.3524 C.ar    1  UNL1        0.2143
      7 N          64.9167   82.9827   15.6112 N.pl3   1  UNL1       -0.3275
      8 N          63.6310   84.8859   14.2438 N.ar    1  UNL1       -0.1822
      9 C          63.2570   85.0897   12.8055 C.ar    1  UNL1        0.1026
     10 C          62.5265   86.1971   12.1056 C.ar    1  UNL1        0.0220
     11 H          65.3827   82.1160   15.5808 H       1  UNL1        0.1451
     12 H          64.8152   83.4572   16.4678 H       1  UNL1        0.1451
     13 C          60.0665   88.4310    8.4390 C.ar    1  UNL1        0.1170
     14 N          60.8141   89.4416    9.2576 N.ar    1  UNL1       -0.2312
     15 C          61.7399   88.7006   10.1762 C.ar    1  UNL1        0.0980
     16 C          61.5645   87.2321    9.9253 C.ar    1  UNL1        0.0753
     17 N          60.5303   87.0656    8.8517 N.ar    1  UNL1       -0.3408
     18 H          60.2118   86.2102    8.4827 H       1  UNL1        0.1671
     19 C          62.6766   89.3194   11.1709 C.ar    1  UNL1        0.0193
     20 C          63.2473   90.6830   10.9163 C.ar    1  UNL1        0.0038
     21 C          64.1840   91.3019   11.9111 C.ar    1  UNL1        0.0297
     22 C          64.5501   90.5571   13.1605 C.ar    1  UNL1        0.1401
     23 F          65.4869   91.1759   14.1553 F       1  UNL1       -0.2042
     24 C          63.9795   89.1934   13.4153 C.ar    1  UNL1        0.0297
     25 C          63.0428   88.5746   12.4204 C.ar    1  UNL1        0.0038
     26 C          59.3688   89.6545    6.2558 C.3     1  UNL1        0.0084
     27 C          59.0361   88.7330    7.3916 C.3     1  UNL1        0.0637
     28 S          63.3278   85.8233   15.3749 S.O2    1  UNL1        0.0667
     29 O          62.0038   85.1487   15.5791 O.2     1  UNL1       -0.1521
     30 O          64.6519   86.4979   15.1707 O.2     1  UNL1       -0.1521
     31 C          63.0247   86.7608   16.5060 C.3     1  UNL1        0.1516
     32 C          62.4708   86.2276   17.7940 C.3     1  UNL1        0.0275
     33 C          63.2755   88.2313   16.3492 C.3     1  UNL1        0.0275
@<TRIPOS>BOND
     1    26    27    1
     2    27    13    1
     3    13    14   ar
     4    14    15   ar
     5    15    19    1
     6    19    20   ar
     7    20    21   ar
     8    21    22   ar
     9    22    23    1
    10    22    24   ar
    11    24    25   ar
    12    15    16   ar
    13    16     1    1
    14     1     2   ar
    15     2     3   ar
    16     3     4   ar
    17     4     5   ar
    18     5     6   ar
    19     6     7    1
    20     6     8   ar
    21     8    28    1
    22    28    29    2
    23    28    30    2
    24    28    31    1
    25    31    32    1
    26    31    33    1
    27     8     9   ar
    28     9    10   ar
    29    16    17   ar
    30    17    13   ar
    31    25    19   ar
    32    10     1   ar
    33     9     4   ar
    34     7    11    1
    35     7    12    1
    36    17    18    1
@<TRIPOS>MOLECULE
*****
 33 36 0 0 0
SMALL
GASTEIGER

@<TRIPOS>ATOM
      1 C          63.6218   89.0816   12.1750 C.ar    1  UNL1        0.0187
      2 C          62.9048   89.4729   10.9169 C.ar    1  UNL1        0.0031
      3 C          63.1298   90.8288   10.3162 C.ar    1  UNL1        0.0208
      4 C          64.0718   91.7934   10.9737 C.ar    1  UNL1        0.1017
      5 N          64.4910   93.1886   10.6160 N.ar    1  UNL1       -0.2126
      6 C          65.4671   93.6595   11.6531 C.ar    1  UNL1        0.2143
      7 N          66.1408   94.9993   11.6859 N.pl3   1  UNL1       -0.3275
      8 N          65.6511   92.5554   12.6517 N.ar    1  UNL1       -0.1822
      9 C          64.7888   91.4021   12.2318 C.ar    1  UNL1        0.1026
     10 C          64.5637   90.0462   12.8324 C.ar    1  UNL1        0.0220
     11 H          65.9544   95.6614   10.9815 H       1  UNL1        0.1451
     12 H          66.7695   95.2165   12.4118 H       1  UNL1        0.1451
     13 C          63.4915   85.8221   14.2784 C.ar    1  UNL1        0.1170
     14 N          62.6095   85.4559   13.1216 N.ar    1  UNL1       -0.2312
     15 C          62.5510   86.6324   12.1929 C.ar    1  UNL1        0.0980
     16 C          63.3968   87.7256   12.7757 C.ar    1  UNL1        0.0753
     17 N          63.9780   87.2248   14.0646 N.ar    1  UNL1       -0.3408
     18 H          64.5742   87.7283   14.6648 H       1  UNL1        0.1671
     19 C          61.7817   86.7032   10.9071 C.ar    1  UNL1        0.0193
     20 C          60.4937   87.4693   10.8449 C.ar    1  UNL1        0.0038
     21 C          59.7244   87.5401    9.5592 C.ar    1  UNL1        0.0297
     22 C          60.2433   86.8448    8.3355 C.ar    1  UNL1        0.1401
     23 F          59.4740   86.9156    7.0497 F       1  UNL1       -0.2042
     24 C          61.5314   86.0786    8.3976 C.ar    1  UNL1        0.0297
     25 C          62.3006   86.0079    9.6834 C.ar    1  UNL1        0.0038
     26 C          63.7942   83.4486   15.2908 C.3     1  UNL1        0.0084
     27 C          63.8279   84.9403   15.4443 C.3     1  UNL1        0.0637
     28 S          66.5411   92.5972   13.8583 S.O2    1  UNL1        0.0667
     29 O          67.7461   92.4716   12.9739 O.2     1  UNL1       -0.1521
     30 O          65.3362   92.7227   14.7428 O.2     1  UNL1       -0.1521
     31 C          67.4312   92.6390   15.0651 C.3     1  UNL1        0.1516
     32 C          68.9218   92.6361   14.8979 C.3     1  UNL1        0.0275
     33 C          66.8306   92.6838   16.4388 C.3     1  UNL1        0.0275
@<TRIPOS>BOND
     1    26    27    1
     2    27    13    1
     3    13    14   ar
     4    14    15   ar
     5    15    19    1
     6    19    20   ar
     7    20    21   ar
     8    21    22   ar
     9    22    23    1
    10    22    24   ar
    11    24    25   ar
    12    15    16   ar
    13    16     1    1
    14     1     2   ar
    15     2     3   ar
    16     3     4   ar
    17     4     5   ar
    18     5     6   ar
    19     6     7    1
    20     6     8   ar
    21     8    28    1
    22    28    29    2
    23    28    30    2
    24    28    31    1
    25    31    32    1
    26    31    33    1
    27     8     9   ar
    28     9    10   ar
    29    16    17   ar
    30    17    13   ar
    31    25    19   ar
    32    10     1   ar
    33     9     4   ar
    34     7    11    1
    35     7    12    1
    36    17    18    1
@<TRIPOS>MOLECULE
*****
 33 36 0 0 0
SMALL
GASTEIGER

@<TRIPOS>ATOM
      1 C          63.5725   86.8181   14.6258 C.ar    1  UNL1        0.0187
      2 C          63.0077   86.6476   16.0049 C.ar    1  UNL1        0.0031
      3 C          62.9545   87.8166   16.9433 C.ar    1  UNL1        0.0208
      4 C          63.4661   89.1560   16.5026 C.ar    1  UNL1        0.1017
      5 N          63.5433   90.4808   17.2021 N.ar    1  UNL1       -0.2126
      6 C          64.1558   91.4699   16.2553 C.ar    1  UNL1        0.2143
      7 N          64.4204   92.9182   16.5426 N.pl3   1  UNL1       -0.3275
      8 N          64.4572   90.7565   14.9706 N.ar    1  UNL1       -0.1822
      9 C          64.0309   89.3265   15.1235 C.ar    1  UNL1        0.1026
     10 C          64.0841   88.1575   14.1851 C.ar    1  UNL1        0.0220
     11 H          64.1863   93.2966   17.4208 H       1  UNL1        0.1451
     12 H          64.8283   93.4903   15.8530 H       1  UNL1        0.1451
     13 C          64.0797   83.4529   12.7593 C.ar    1  UNL1        0.1170
     14 N          63.3356   84.2475   11.7272 N.ar    1  UNL1       -0.2312
     15 C          63.0550   85.6048   12.3009 C.ar    1  UNL1        0.0980
     16 C          63.6258   85.6490   13.6874 C.ar    1  UNL1        0.0753
     17 N          64.2590   84.3191   13.9706 N.ar    1  UNL1       -0.3408
     18 H          64.7127   84.0602   14.8051 H       1  UNL1        0.1671
     19 C          62.3309   86.7217   11.6094 C.ar    1  UNL1        0.0193
     20 C          61.0111   86.4623   10.9455 C.ar    1  UNL1        0.0038
     21 C          60.2870   87.5792   10.2540 C.ar    1  UNL1        0.0297
     22 C          60.8827   88.9556   10.2265 C.ar    1  UNL1        0.1401
     23 F          60.1585   90.0725    9.5350 F       1  UNL1       -0.2042
     24 C          62.2026   89.2150   10.8904 C.ar    1  UNL1        0.0297
     25 C          62.9266   88.0980   11.5818 C.ar    1  UNL1        0.0038
     26 C          63.7454   80.9073   13.1569 C.3     1  UNL1        0.0084
     27 C          64.5601   82.0401   12.6066 C.3     1  UNL1        0.0637
     28 S          65.0761   91.3661   13.7478 S.O2    1  UNL1        0.0667
     29 O          63.7211   91.4674   13.1125 O.2     1  UNL1       -0.1521
     30 O          66.4311   91.2647   14.3831 O.2     1  UNL1       -0.1521
     31 C          65.6951   91.9757   12.5250 C.3     1  UNL1        0.1516
     32 C          64.8803   92.1452   11.2771 C.3     1  UNL1        0.0275
     33 C          67.1288   92.4157   12.5501 C.3     1  UNL1        0.0275
@<TRIPOS>BOND
     1    26    27    1
     2    27    13    1
     3    13    14   ar
     4    14    15   ar
     5    15    19    1
     6    19    20   ar
     7    20    21   ar
     8    21    22   ar
     9    22    23    1
    10    22    24   ar
    11    24    25   ar
    12    15    16   ar
    13    16     1    1
    14     1     2   ar
    15     2     3   ar
    16     3     4   ar
    17     4     5   ar
    18     5     6   ar
    19     6     7    1
    20     6     8   ar
    21     8    28    1
    22    28    29    2
    23    28    30    2
    24    28    31    1
    25    31    32    1
    26    31    33    1
    27     8     9   ar
    28     9    10   ar
    29    16    17   ar
    30    17    13   ar
    31    25    19   ar
    32    10     1   ar
    33     9     4   ar
    34     7    11    1
    35     7    12    1
    36    17    18    1
@<TRIPOS>MOLECULE
*****
 33 36 0 0 0
SMALL
GASTEIGER

@<TRIPOS>ATOM
      1 C          62.9157   87.7516   12.2039 C.ar    1  UNL1        0.0187
      2 C          63.5411   88.5499   13.3090 C.ar    1  UNL1        0.0031
      3 C          64.2224   87.8497   14.4471 C.ar    1  UNL1        0.0208
      4 C          64.2784   86.3511   14.4801 C.ar    1  UNL1        0.1017
      5 N          64.8766   85.3904   15.4647 N.ar    1  UNL1       -0.2126
      6 C          64.6209   83.9984   14.9680 C.ar    1  UNL1        0.2143
      7 N          65.0466   82.7288   15.6441 N.pl3   1  UNL1       -0.3275
      8 N          63.8646   84.0987   13.6764 N.ar    1  UNL1       -0.1822
      9 C          63.6530   85.5527   13.3749 C.ar    1  UNL1        0.1026
     10 C          62.9716   86.2530   12.2368 C.ar    1  UNL1        0.0220
     11 H          65.5418   82.7660   16.4942 H       1  UNL1        0.1451
     12 H          64.8308   81.8584   15.2377 H       1  UNL1        0.1451
     13 C          60.7758   88.9154    9.1819 C.ar    1  UNL1        0.1170
     14 N          61.5956   90.1434    9.4466 N.ar    1  UNL1       -0.2312
     15 C          62.4970   89.8568   10.6108 C.ar    1  UNL1        0.0980
     16 C          62.2342   88.4518   11.0657 C.ar    1  UNL1        0.0753
     17 N          61.1705   87.8700   10.1826 N.ar    1  UNL1       -0.3408
     18 H          60.7969   86.9615   10.2482 H       1  UNL1        0.1671
     19 C          63.4872   90.8083   11.2142 C.ar    1  UNL1        0.0193
     20 C          64.3725   91.6321   10.3268 C.ar    1  UNL1        0.0038
     21 C          65.3628   92.5836   10.9302 C.ar    1  UNL1        0.0297
     22 C          65.4678   92.7112   12.4211 C.ar    1  UNL1        0.1401
     23 F          66.4580   93.6627   13.0245 F       1  UNL1       -0.2042
     24 C          64.5824   91.8874   13.3086 C.ar    1  UNL1        0.0297
     25 C          63.5922   90.9360   12.7051 C.ar    1  UNL1        0.0038
     26 C          59.2312   87.3961    7.7480 C.3     1  UNL1        0.0084
     27 C          59.7426   88.7601    8.1056 C.3     1  UNL1        0.0637
     28 S          63.4014   82.9471   12.8342 S.O2    1  UNL1        0.0667
     29 O          62.3129   82.6600   13.8256 O.2     1  UNL1       -0.1521
     30 O          64.4898   83.2343   11.8429 O.2     1  UNL1       -0.1521
     31 C          62.9381   81.7955   11.9920 C.3     1  UNL1        0.1516
     32 C          63.1122   81.8379   10.5027 C.3     1  UNL1        0.0275
     33 C          62.3009   80.6017   12.6389 C.3     1  UNL1        0.0275
@<TRIPOS>BOND
     1    26    27    1
     2    27    13    1
     3    13    14   ar
     4    14    15   ar
     5    15    19    1
     6    19    20   ar
     7    20    21   ar
     8    21    22   ar
     9    22    23    1
    10    22    24   ar
    11    24    25   ar
    12    15    16   ar
    13    16     1    1
    14     1     2   ar
    15     2     3   ar
    16     3     4   ar
    17     4     5   ar
    18     5     6   ar
    19     6     7    1
    20     6     8   ar
    21     8    28    1
    22    28    29    2
    23    28    30    2
    24    28    31    1
    25    31    32    1
    26    31    33    1
    27     8     9   ar
    28     9    10   ar
    29    16    17   ar
    30    17    13   ar
    31    25    19   ar
    32    10     1   ar
    33     9     4   ar
    34     7    11    1
    35     7    12    1
    36    17    18    1
@<TRIPOS>MOLECULE
*****
 33 36 0 0 0
SMALL
GASTEIGER

@<TRIPOS>ATOM
      1 C          62.2002   86.1643    9.3675 C.ar    1  UNL1        0.0187
      2 C          62.7539   85.3259    8.2538 C.ar    1  UNL1        0.0031
      3 C          63.5696   84.1068    8.5669 C.ar    1  UNL1        0.0208
      4 C          63.8317   83.7259    9.9939 C.ar    1  UNL1        0.1017
      5 N          64.5947   82.5882   10.6052 N.ar    1  UNL1       -0.2126
      6 C          64.5125   82.7235   12.0968 C.ar    1  UNL1        0.2143
      7 N          65.1348   81.7997   13.1016 N.pl3   1  UNL1       -0.3275
      8 N          63.6988   83.9448   12.4074 N.ar    1  UNL1       -0.1822
      9 C          63.2781   84.5643   11.1077 C.ar    1  UNL1        0.1026
     10 C          62.4623   85.7835   10.7945 C.ar    1  UNL1        0.0220
     11 H          65.6538   81.0200   12.7982 H       1  UNL1        0.1451
     12 H          65.0244   81.9732   14.0644 H       1  UNL1        0.1451
     13 C          59.7893   88.8894    8.0160 C.ar    1  UNL1        0.1170
     14 N          60.4691   89.6302    9.1292 N.ar    1  UNL1       -0.2312
     15 C          61.4550   88.6995    9.7709 C.ar    1  UNL1        0.0980
     16 C          61.3845   87.3836    9.0544 C.ar    1  UNL1        0.0753
     17 N          60.3550   87.5009    7.9698 N.ar    1  UNL1       -0.3408
     18 H          60.0961   86.7913    7.3385 H       1  UNL1        0.1671
     19 C          62.3537   89.0272   10.9263 C.ar    1  UNL1        0.0193
     20 C          62.6866   87.9731   11.9401 C.ar    1  UNL1        0.0038
     21 C          63.5853   88.3008   13.0955 C.ar    1  UNL1        0.0297
     22 C          64.1510   89.6828   13.2372 C.ar    1  UNL1        0.1401
     23 F          65.0497   90.0105   14.3926 F       1  UNL1       -0.2042
     24 C          63.8181   90.7371   12.2233 C.ar    1  UNL1        0.0297
     25 C          62.9194   90.4092   11.0680 C.ar    1  UNL1        0.0038
     26 C          59.1184   90.1397    5.8396 C.3     1  UNL1        0.0084
     27 C          58.7297   89.4404    7.1084 C.3     1  UNL1        0.0637
     28 S          63.3646   84.4567   13.7771 S.O2    1  UNL1        0.0667
     29 O          64.7378   85.0494   13.8907 O.2     1  UNL1       -0.1521
     30 O          61.9913   83.8641   13.6635 O.2     1  UNL1       -0.1521
     31 C          63.0303   84.9686   15.1469 C.3     1  UNL1        0.1516
     32 C          64.0138   85.8248   15.8883 C.3     1  UNL1        0.0275
     33 C          61.7125   84.6244   15.7753 C.3     1  UNL1        0.0275
@<TRIPOS>BOND
     1    26    27    1
     2    27    13    1
     3    13    14   ar
     4    14    15   ar
     5    15    19    1
     6    19    20   ar
     7    20    21   ar
     8    21    22   ar
     9    22    23    1
    10    22    24   ar
    11    24    25   ar
    12    15    16   ar
    13    16     1    1
    14     1     2   ar
    15     2     3   ar
    16     3     4   ar
    17     4     5   ar
    18     5     6   ar
    19     6     7    1
    20     6     8   ar
    21     8    28    1
    22    28    29    2
    23    28    30    2
    24    28    31    1
    25    31    32    1
    26    31    33    1
    27     8     9   ar
    28     9    10   ar
    29    16    17   ar
    30    17    13   ar
    31    25    19   ar
    32    10     1   ar
    33     9     4   ar
    34     7    11    1
    35     7    12    1
    36    17    18    1
