@<TRIPOS>MOLECULE
*****
 25 27 0 0 0
SMALL
GASTEIGER

@<TRIPOS>ATOM
      1 C          62.8641   86.8751   12.0691 C.2     1  UNL1       -0.0245
      2 C          63.5872   87.6079   13.1600 C.2     1  UNL1       -0.0421
      3 C          64.1770   86.5897   14.0902 C.3     1  UNL1        0.0481
      4 C          63.8184   85.2276   13.5742 C.ar    1  UNL1       -0.0162
      5 C          64.1259   83.8495   14.0805 C.ar    1  UNL1        0.0257
      6 C          63.6220   82.6479   13.3375 C.ar    1  UNL1        0.1398
      7 F          63.9295   81.2697   13.8437 F       1  UNL1       -0.2042
      8 C          62.8105   82.8243   12.0883 C.ar    1  UNL1        0.0296
      9 C          62.5031   84.2024   11.5821 C.ar    1  UNL1        0.0017
     10 C          63.0070   85.4040   12.3251 C.ar    1  UNL1       -0.0077
     11 C          62.1275   87.5031   10.9232 C.3     1  UNL1        0.0666
     12 C          62.4393   87.0911    9.5150 C.3     1  UNL1        0.0112
     13 C          61.2419   89.9284   10.6336 C.ar    1  UNL1        0.2393
     14 N          60.1933   90.9684   10.8959 N.ar    1  UNL1       -0.2075
     15 C          58.9818   90.6233   11.7101 C.ar    1  UNL1        0.1227
     16 C          58.8187   89.2381   12.2621 C.ar    1  UNL1        0.1193
     17 N          59.8673   88.1981   11.9998 N.ar    1  UNL1       -0.2415
     18 C          61.0790   88.5432   11.1855 C.ar    1  UNL1        0.1156
     19 C          63.3893   91.3489   10.2861 C.3     1  UNL1        0.2543
     20 O          62.4535   90.2736    9.8194 O.3     1  UNL1       -0.4553
     21 C          63.7007   89.0973   13.2967 C.3     1  UNL1        0.0394
     22 C          64.5637   89.6883   14.3718 C.3     1  UNL1        0.0765
     23 N          63.9435   90.1780   15.6468 N.3     1  UNL1       -0.2700
     24 C          63.0889   89.2576   16.4670 C.3     1  UNL1        0.0897
     25 C          64.1779   91.5880   16.1016 C.3     1  UNL1        0.0897
@<TRIPOS>BOND
     1    19    20    1
     2    20    13    1
     3    13    14   ar
     4    14    15   ar
     5    15    16   ar
     6    16    17   ar
     7    17    18   ar
     8    18    11    1
     9    11    12    1
    10    11     1    1
    11     1     2    2
    12     2    21    1
    13    21    22    1
    14    22    23    1
    15    23    24    1
    16    23    25    1
    17     2     3    1
    18     3     4    1
    19     4     5   ar
    20     5     6   ar
    21     6     7    1
    22     6     8   ar
    23     8     9   ar
    24     9    10   ar
    25    18    13   ar
    26    10     1    1
    27    10     4   ar
@<TRIPOS>MOLECULE
*****
 25 27 0 0 0
SMALL
GASTEIGER

@<TRIPOS>ATOM
      1 C          63.5359   89.1759   12.9864 C.2     1  UNL1       -0.0245
      2 C          63.7955   87.7843   13.4822 C.2     1  UNL1       -0.0421
      3 C          63.1269   86.8252   12.5424 C.3     1  UNL1        0.0481
      4 C          62.4541   87.6241   11.4658 C.ar    1  UNL1       -0.0162
      5 C          61.6440   87.2164   10.2711 C.ar    1  UNL1        0.0257
      6 C          61.0866   88.2615    9.3508 C.ar    1  UNL1        0.1398
      7 F          60.2765   87.8537    8.1560 F       1  UNL1       -0.2042
      8 C          61.3394   89.7143    9.6252 C.ar    1  UNL1        0.0296
      9 C          62.1495   90.1221   10.8199 C.ar    1  UNL1        0.0017
     10 C          62.7069   89.0770   11.7402 C.ar    1  UNL1       -0.0077
     11 C          64.0202   90.4440   13.6247 C.3     1  UNL1        0.0666
     12 C          63.6139   90.7794   15.0293 C.3     1  UNL1        0.0112
     13 C          66.2492   91.7622   13.4155 C.ar    1  UNL1        0.2393
     14 N          67.1398   92.6949   12.6494 N.ar    1  UNL1       -0.2075
     15 C          66.6921   93.2421   11.3265 C.ar    1  UNL1        0.1227
     16 C          65.3536   92.8566   10.7697 C.ar    1  UNL1        0.1193
     17 N          64.4631   91.9239   11.5358 N.ar    1  UNL1       -0.2415
     18 C          64.9108   91.3766   12.8587 C.ar    1  UNL1        0.1156
     19 C          67.7177   91.9565   15.5500 C.3     1  UNL1        0.2543
     20 O          66.6971   91.2151   14.7384 O.3     1  UNL1       -0.4553
     21 C          64.5851   87.4163   14.7034 C.3     1  UNL1        0.0394
     22 C          64.5029   86.0253   15.2586 C.3     1  UNL1        0.0765
     23 N          63.2771   85.5862   16.0033 N.3     1  UNL1       -0.2700
     24 C          62.8541   86.3122   17.2459 C.3     1  UNL1        0.0897
     25 C          62.4742   84.4211   15.5054 C.3     1  UNL1        0.0897
@<TRIPOS>BOND
     1    19    20    1
     2    20    13    1
     3    13    14   ar
     4    14    15   ar
     5    15    16   ar
     6    16    17   ar
     7    17    18   ar
     8    18    11    1
     9    11    12    1
    10    11     1    1
    11     1     2    2
    12     2    21    1
    13    21    22    1
    14    22    23    1
    15    23    24    1
    16    23    25    1
    17     2     3    1
    18     3     4    1
    19     4     5   ar
    20     5     6   ar
    21     6     7    1
    22     6     8   ar
    23     8     9   ar
    24     9    10   ar
    25    18    13   ar
    26    10     1    1
    27    10     4   ar
@<TRIPOS>MOLECULE
*****
 25 27 0 0 0
SMALL
GASTEIGER

@<TRIPOS>ATOM
      1 C          63.5224   86.6023   13.2159 C.2     1  UNL1       -0.0245
      2 C          63.1628   85.1953   12.8404 C.2     1  UNL1       -0.0421
      3 C          62.3571   85.2446   11.5761 C.3     1  UNL1        0.0481
      4 C          62.2188   86.6820   11.1702 C.ar    1  UNL1       -0.0162
      5 C          61.5301   87.3351   10.0088 C.ar    1  UNL1        0.0257
      6 C          61.5617   88.8274    9.8607 C.ar    1  UNL1        0.1398
      7 F          60.8730   89.4807    8.6992 F       1  UNL1       -0.2042
      8 C          62.2819   89.6666   10.8742 C.ar    1  UNL1        0.0296
      9 C          62.9706   89.0134   12.0357 C.ar    1  UNL1        0.0017
     10 C          62.9390   87.5211   12.1837 C.ar    1  UNL1       -0.0077
     11 C          64.3247   87.0177   14.4134 C.3     1  UNL1        0.0666
     12 C          65.2938   86.0572   15.0368 C.3     1  UNL1        0.0112
     13 C          63.2190   88.6182   16.1355 C.ar    1  UNL1        0.2393
     14 N          63.0523   89.9939   16.7097 N.ar    1  UNL1       -0.2075
     15 C          63.8244   91.1447   16.1358 C.ar    1  UNL1        0.1227
     16 C          64.7633   90.9199   14.9877 C.ar    1  UNL1        0.1193
     17 N          64.9300   89.5442   14.4136 N.ar    1  UNL1       -0.2415
     18 C          64.1579   88.3933   14.9875 C.ar    1  UNL1        0.1156
     19 C          62.9217   86.7973   17.9648 C.3     1  UNL1        0.2543
     20 O          62.4469   87.4673   16.7095 O.3     1  UNL1       -0.4553
     21 C          63.5422   83.9566   13.5965 C.3     1  UNL1        0.0394
     22 C          62.4761   83.0835   14.1889 C.3     1  UNL1        0.0765
     23 N          62.1027   81.7953   13.5173 N.3     1  UNL1       -0.2700
     24 C          61.0380   80.9211   14.1111 C.3     1  UNL1        0.0897
     25 C          62.7937   81.3813   12.2521 C.3     1  UNL1        0.0897
@<TRIPOS>BOND
     1    19    20    1
     2    20    13    1
     3    13    14   ar
     4    14    15   ar
     5    15    16   ar
     6    16    17   ar
     7    17    18   ar
     8    18    11    1
     9    11    12    1
    10    11     1    1
    11     1     2    2
    12     2    21    1
    13    21    22    1
    14    22    23    1
    15    23    24    1
    16    23    25    1
    17     2     3    1
    18     3     4    1
    19     4     5   ar
    20     5     6   ar
    21     6     7    1
    22     6     8   ar
    23     8     9   ar
    24     9    10   ar
    25    18    13   ar
    26    10     1    1
    27    10     4   ar
@<TRIPOS>MOLECULE
*****
 25 27 0 0 0
SMALL
GASTEIGER

@<TRIPOS>ATOM
      1 C          63.4027   88.5882   12.6593 C.2     1  UNL1       -0.0245
      2 C          63.9814   89.4140   13.7698 C.2     1  UNL1       -0.0421
      3 C          64.4527   88.4800   14.8447 C.3     1  UNL1        0.0481
      4 C          64.1654   87.0770   14.3985 C.ar    1  UNL1       -0.0162
      5 C          64.4108   85.7472   15.0477 C.ar    1  UNL1        0.0257
      6 C          64.0073   84.4843   14.3461 C.ar    1  UNL1        0.1398
      7 F          64.2527   83.1544   14.9952 F       1  UNL1       -0.2042
      8 C          63.3583   84.5512   12.9954 C.ar    1  UNL1        0.0296
      9 C          63.1129   85.8810   12.3463 C.ar    1  UNL1        0.0017
     10 C          63.5164   87.1439   13.0478 C.ar    1  UNL1       -0.0077
     11 C          62.8137   89.1144   11.3840 C.3     1  UNL1        0.0666
     12 C          63.1074   90.5185   10.9455 C.3     1  UNL1        0.0112
     13 C          60.4522   88.2047   10.7962 C.ar    1  UNL1        0.2393
     14 N          59.5695   87.3268    9.9594 N.ar    1  UNL1       -0.2075
     15 C          60.1656   86.4808    8.8737 C.ar    1  UNL1        0.1227
     16 C          61.6445   86.5126    8.6247 C.ar    1  UNL1        0.1193
     17 N          62.5272   87.3905    9.4615 N.ar    1  UNL1       -0.2415
     18 C          61.9310   88.2365   10.5473 C.ar    1  UNL1        0.1156
     19 C          59.3682   90.4348   11.5717 C.3     1  UNL1        0.2543
     20 O          59.8559   89.0507   11.8819 O.3     1  UNL1       -0.4553
     21 C          64.0726   90.9109   13.8001 C.3     1  UNL1        0.0394
     22 C          65.2718   91.5770   14.4068 C.3     1  UNL1        0.0765
     23 N          65.9086   92.7473   13.7176 N.3     1  UNL1       -0.2700
     24 C          66.8225   93.6604   14.4800 C.3     1  UNL1        0.0897
     25 C          65.6314   93.0046   12.2661 C.3     1  UNL1        0.0897
@<TRIPOS>BOND
     1    19    20    1
     2    20    13    1
     3    13    14   ar
     4    14    15   ar
     5    15    16   ar
     6    16    17   ar
     7    17    18   ar
     8    18    11    1
     9    11    12    1
    10    11     1    1
    11     1     2    2
    12     2    21    1
    13    21    22    1
    14    22    23    1
    15    23    24    1
    16    23    25    1
    17     2     3    1
    18     3     4    1
    19     4     5   ar
    20     5     6   ar
    21     6     7    1
    22     6     8   ar
    23     8     9   ar
    24     9    10   ar
    25    18    13   ar
    26    10     1    1
    27    10     4   ar
@<TRIPOS>MOLECULE
*****
 25 27 0 0 0
SMALL
GASTEIGER

@<TRIPOS>ATOM
      1 C          63.5709   87.0998   13.1130 C.2     1  UNL1       -0.0245
      2 C          63.7003   88.5820   13.3032 C.2     1  UNL1       -0.0421
      3 C          62.9982   89.2586   12.1633 C.3     1  UNL1        0.0481
      4 C          62.4349   88.1946   11.2687 C.ar    1  UNL1       -0.0162
      5 C          61.6453   88.2682    9.9954 C.ar    1  UNL1        0.0257
      6 C          61.2097   87.0076    9.3091 C.ar    1  UNL1        0.1398
      7 F          60.4202   87.0812    8.0358 F       1  UNL1       -0.2042
      8 C          61.5637   85.6733    9.8961 C.ar    1  UNL1        0.0296
      9 C          62.3532   85.5997   11.1693 C.ar    1  UNL1        0.0017
     10 C          62.7888   86.8603   11.8556 C.ar    1  UNL1       -0.0077
     11 C          64.1261   86.0426   14.0208 C.3     1  UNL1        0.0666
     12 C          65.1349   86.4083   15.0690 C.3     1  UNL1        0.0112
     13 C          62.4863   84.1305   14.6573 C.ar    1  UNL1        0.2393
     14 N          62.0328   82.7076   14.5169 N.ar    1  UNL1       -0.2075
     15 C          62.7656   81.7739   13.5997 C.ar    1  UNL1        0.1227
     16 C          63.9519   82.2631   12.8229 C.ar    1  UNL1        0.1193
     17 N          64.4053   83.6860   12.9633 N.ar    1  UNL1       -0.2415
     18 C          63.6726   84.6198   13.8805 C.ar    1  UNL1        0.1156
     19 C          62.3412   85.4208   16.9076 C.3     1  UNL1        0.2543
     20 O          61.7535   85.0642   15.5744 O.3     1  UNL1       -0.4553
     21 C          64.4077   89.2674   14.4345 C.3     1  UNL1        0.0394
     22 C          64.1339   90.7134   14.7241 C.3     1  UNL1        0.0765
     23 N          65.1375   91.7589   14.3371 N.3     1  UNL1       -0.2700
     24 C          65.2742   92.1724   12.9017 C.3     1  UNL1        0.0897
     25 C          66.0044   92.3908   15.3855 C.3     1  UNL1        0.0897
@<TRIPOS>BOND
     1    19    20    1
     2    20    13    1
     3    13    14   ar
     4    14    15   ar
     5    15    16   ar
     6    16    17   ar
     7    17    18   ar
     8    18    11    1
     9    11    12    1
    10    11     1    1
    11     1     2    2
    12     2    21    1
    13    21    22    1
    14    22    23    1
    15    23    24    1
    16    23    25    1
    17     2     3    1
    18     3     4    1
    19     4     5   ar
    20     5     6   ar
    21     6     7    1
    22     6     8   ar
    23     8     9   ar
    24     9    10   ar
    25    18    13   ar
    26    10     1    1
    27    10     4   ar
@<TRIPOS>MOLECULE
*****
 25 27 0 0 0
SMALL
GASTEIGER

@<TRIPOS>ATOM
      1 C          63.0281   88.4157   12.1163 C.2     1  UNL1       -0.0245
      2 C          62.2643   87.7865   10.9890 C.2     1  UNL1       -0.0421
      3 C          62.2787   86.3004   11.1920 C.3     1  UNL1        0.0481
      4 C          63.0513   86.0111   12.4448 C.ar    1  UNL1       -0.0162
      5 C          63.3929   84.7261   13.1391 C.ar    1  UNL1        0.0257
      6 C          64.1977   84.7485   14.4047 C.ar    1  UNL1        0.1398
      7 F          64.5393   83.4635   15.0991 F       1  UNL1       -0.2042
      8 C          64.6609   86.0558   14.9760 C.ar    1  UNL1        0.0296
      9 C          64.3193   87.3408   14.2816 C.ar    1  UNL1        0.0017
     10 C          63.5145   87.3184   13.0161 C.ar    1  UNL1       -0.0077
     11 C          63.2641   89.8843   12.3100 C.3     1  UNL1        0.0666
     12 C          63.1654   90.8202   11.1419 C.3     1  UNL1        0.0112
     13 C          64.7293   91.3884   13.8399 C.ar    1  UNL1        0.2393
     14 N          65.0639   91.9211   15.2016 N.ar    1  UNL1       -0.2075
     15 C          64.2681   91.4826   16.3950 C.ar    1  UNL1        0.1227
     16 C          63.1375   90.5112   16.2268 C.ar    1  UNL1        0.1193
     17 N          62.8029   89.9784   14.8651 N.ar    1  UNL1       -0.2415
     18 C          63.5988   90.4170   13.6716 C.ar    1  UNL1        0.1156
     19 C          66.0954   93.2134   12.5937 C.3     1  UNL1        0.2543
     20 O          65.5252   91.8270   12.6466 O.3     1  UNL1       -0.4553
     21 C          61.6025   88.5155    9.8574 C.3     1  UNL1        0.0394
     22 C          60.1476   88.2910    9.5696 C.3     1  UNL1        0.0765
     23 N          59.7095   87.8823    8.1945 N.3     1  UNL1       -0.2700
     24 C          59.6599   86.4295    7.8239 C.3     1  UNL1        0.0897
     25 C          59.3210   88.9262    7.1899 C.3     1  UNL1        0.0897
@<TRIPOS>BOND
     1    19    20    1
     2    20    13    1
     3    13    14   ar
     4    14    15   ar
     5    15    16   ar
     6    16    17   ar
     7    17    18   ar
     8    18    11    1
     9    11    12    1
    10    11     1    1
    11     1     2    2
    12     2    21    1
    13    21    22    1
    14    22    23    1
    15    23    24    1
    16    23    25    1
    17     2     3    1
    18     3     4    1
    19     4     5   ar
    20     5     6   ar
    21     6     7    1
    22     6     8   ar
    23     8     9   ar
    24     9    10   ar
    25    18    13   ar
    26    10     1    1
    27    10     4   ar
@<TRIPOS>MOLECULE
*****
 25 27 0 0 0
SMALL
GASTEIGER

@<TRIPOS>ATOM
      1 C          63.5472   85.2924   13.0518 C.2     1  UNL1       -0.0245
      2 C          63.1669   83.9213   12.5768 C.2     1  UNL1       -0.0421
      3 C          62.3482   84.0737   11.3291 C.3     1  UNL1        0.0481
      4 C          62.2225   85.5388   11.0332 C.ar    1  UNL1       -0.0162
      5 C          61.5291   86.2844    9.9317 C.ar    1  UNL1        0.0257
      6 C          61.5767   87.7831    9.8950 C.ar    1  UNL1        0.1398
      7 F          60.8832   88.5288    8.7935 F       1  UNL1       -0.2042
      8 C          62.3177   88.5363   10.9597 C.ar    1  UNL1        0.0296
      9 C          63.0111   87.7908   12.0611 C.ar    1  UNL1        0.0017
     10 C          62.9636   86.2920   12.0979 C.ar    1  UNL1       -0.0077
     11 C          64.3672   85.6083   14.2675 C.3     1  UNL1        0.0666
     12 C          65.8138   85.2147   14.3195 C.3     1  UNL1        0.0112
     13 C          63.8738   87.8061   15.5622 C.ar    1  UNL1        0.2393
     14 N          63.2473   88.5155   16.7259 N.ar    1  UNL1       -0.2075
     15 C          62.4878   87.7366   17.7586 C.ar    1  UNL1        0.1227
     16 C          62.3547   86.2483   17.6276 C.ar    1  UNL1        0.1193
     17 N          62.9812   85.5389   16.4639 N.ar    1  UNL1       -0.2415
     18 C          63.7408   86.3177   15.4311 C.ar    1  UNL1        0.1156
     19 C          64.6227   90.0846   14.5634 C.3     1  UNL1        0.2543
     20 O          64.6333   88.5850   14.5295 O.3     1  UNL1       -0.4553
     21 C          63.5398   82.6255   13.2339 C.3     1  UNL1        0.0394
     22 C          62.5912   81.9714   14.1942 C.3     1  UNL1        0.0765
     23 N          61.8077   80.7647   13.7697 N.3     1  UNL1       -0.2700
     24 C          60.3652   80.6320   14.1593 C.3     1  UNL1        0.0897
     25 C          62.4666   79.6908   12.9558 C.3     1  UNL1        0.0897
@<TRIPOS>BOND
     1    19    20    1
     2    20    13    1
     3    13    14   ar
     4    14    15   ar
     5    15    16   ar
     6    16    17   ar
     7    17    18   ar
     8    18    11    1
     9    11    12    1
    10    11     1    1
    11     1     2    2
    12     2    21    1
    13    21    22    1
    14    22    23    1
    15    23    24    1
    16    23    25    1
    17     2     3    1
    18     3     4    1
    19     4     5   ar
    20     5     6   ar
    21     6     7    1
    22     6     8   ar
    23     8     9   ar
    24     9    10   ar
    25    18    13   ar
    26    10     1    1
    27    10     4   ar
@<TRIPOS>MOLECULE
*****
 25 27 0 0 0
SMALL
GASTEIGER

@<TRIPOS>ATOM
      1 C          63.3377   86.0733   12.8045 C.2     1  UNL1       -0.0245
      2 C          63.8992   85.2925   13.9556 C.2     1  UNL1       -0.0421
      3 C          64.4790   86.2668   14.9377 C.3     1  UNL1        0.0481
      4 C          64.2759   87.6498   14.3936 C.ar    1  UNL1       -0.0162
      5 C          64.6422   89.0025   14.9283 C.ar    1  UNL1        0.0257
      6 C          64.3030   90.2357   14.1446 C.ar    1  UNL1        0.1398
      7 F          64.6693   91.5885   14.6792 F       1  UNL1       -0.2042
      8 C          63.5976   90.1161   12.8262 C.ar    1  UNL1        0.0296
      9 C          63.2314   88.7634   12.2915 C.ar    1  UNL1        0.0017
     10 C          63.5706   87.5302   13.0752 C.ar    1  UNL1       -0.0077
     11 C          62.6620   85.4983   11.5951 C.3     1  UNL1        0.0666
     12 C          62.8967   84.0664   11.2146 C.3     1  UNL1        0.0112
     13 C          61.9279   86.4153    9.2778 C.ar    1  UNL1        0.2393
     14 N          61.0174   87.2721    8.4489 N.ar    1  UNL1       -0.2075
     15 C          59.9307   88.0684    9.1083 C.ar    1  UNL1        0.1227
     16 C          59.7544   88.0080   10.5967 C.ar    1  UNL1        0.1193
     17 N          60.6648   87.1513   11.4256 N.ar    1  UNL1       -0.2415
     18 C          61.7516   86.3549   10.7662 C.ar    1  UNL1        0.1156
     19 C          62.7203   84.8356    7.3735 C.3     1  UNL1        0.2543
     20 O          63.0146   85.6190    8.6183 O.3     1  UNL1       -0.4553
     21 C          63.8835   83.7995   14.0994 C.3     1  UNL1        0.0394
     22 C          62.6290   83.1009   14.5331 C.3     1  UNL1        0.0765
     23 N          62.3650   81.6914   14.0929 N.3     1  UNL1       -0.2700
     24 C          60.9744   81.1329   14.1597 C.3     1  UNL1        0.0897
     25 C          63.4914   80.8405   13.5859 C.3     1  UNL1        0.0897
@<TRIPOS>BOND
     1    19    20    1
     2    20    13    1
     3    13    14   ar
     4    14    15   ar
     5    15    16   ar
     6    16    17   ar
     7    17    18   ar
     8    18    11    1
     9    11    12    1
    10    11     1    1
    11     1     2    2
    12     2    21    1
    13    21    22    1
    14    22    23    1
    15    23    24    1
    16    23    25    1
    17     2     3    1
    18     3     4    1
    19     4     5   ar
    20     5     6   ar
    21     6     7    1
    22     6     8   ar
    23     8     9   ar
    24     9    10   ar
    25    18    13   ar
    26    10     1    1
    27    10     4   ar
@<TRIPOS>MOLECULE
*****
 25 27 0 0 0
SMALL
GASTEIGER

@<TRIPOS>ATOM
      1 C          62.6181   87.2387   11.6184 C.2     1  UNL1       -0.0245
      2 C          62.1478   88.2186   10.5847 C.2     1  UNL1       -0.0421
      3 C          62.5638   89.5911   11.0241 C.3     1  UNL1        0.0481
      4 C          63.2912   89.4595   12.3293 C.ar    1  UNL1       -0.0162
      5 C          63.9274   90.4757   13.2307 C.ar    1  UNL1        0.0257
      6 C          64.5971   90.0379   14.4995 C.ar    1  UNL1        0.1398
      7 F          65.2333   91.0541   15.4010 F       1  UNL1       -0.2042
      8 C          64.6306   88.5840   14.8668 C.ar    1  UNL1        0.0296
      9 C          63.9945   87.5678   13.9654 C.ar    1  UNL1        0.0017
     10 C          63.3248   88.0056   12.6966 C.ar    1  UNL1       -0.0077
     11 C          62.4171   85.7527   11.5806 C.3     1  UNL1        0.0666
     12 C          61.7698   85.1135   10.3878 C.3     1  UNL1        0.0112
     13 C          63.9839   83.9248   12.5572 C.ar    1  UNL1        0.2393
     14 N          64.4300   83.0779   13.7121 N.ar    1  UNL1       -0.2075
     15 C          63.7556   83.2120   15.0451 C.ar    1  UNL1        0.1227
     16 C          62.6349   84.1930   15.2234 C.ar    1  UNL1        0.1193
     17 N          62.1888   85.0399   14.0685 N.ar    1  UNL1       -0.2415
     18 C          62.8632   84.9058   12.7354 C.ar    1  UNL1        0.1156
     19 C          64.3549   82.6136   10.3451 C.3     1  UNL1        0.2543
     20 O          64.6584   83.7906   11.2242 O.3     1  UNL1       -0.4553
     21 C          61.3938   87.8846    9.3317 C.3     1  UNL1        0.0394
     22 C          60.3512   88.8282    8.8097 C.3     1  UNL1        0.0765
     23 N          59.4820   88.4222    7.6567 N.3     1  UNL1       -0.2700
     24 C          58.9067   87.0379    7.6022 C.3     1  UNL1        0.0897
     25 C          59.1881   89.4003    6.5581 C.3     1  UNL1        0.0897
@<TRIPOS>BOND
     1    19    20    1
     2    20    13    1
     3    13    14   ar
     4    14    15   ar
     5    15    16   ar
     6    16    17   ar
     7    17    18   ar
     8    18    11    1
     9    11    12    1
    10    11     1    1
    11     1     2    2
    12     2    21    1
    13    21    22    1
    14    22    23    1
    15    23    24    1
    16    23    25    1
    17     2     3    1
    18     3     4    1
    19     4     5   ar
    20     5     6   ar
    21     6     7    1
    22     6     8   ar
    23     8     9   ar
    24     9    10   ar
    25    18    13   ar
    26    10     1    1
    27    10     4   ar
