@<TRIPOS>MOLECULE
*****
 30 32 0 0 0
SMALL
GASTEIGER

@<TRIPOS>ATOM
      1 C          62.6481   85.3723   11.5058 C.ar    1  UNL1        0.1344
      2 C          62.8020   85.0557   10.0477 C.ar    1  UNL1        0.0310
      3 C          61.9261   85.7340    9.0364 C.ar    1  UNL1       -0.0067
      4 C          62.0801   85.4175    7.5783 C.3     1  UNL1        0.0319
      5 C          60.8962   86.7288    9.4833 C.ar    1  UNL1        0.0959
      6 C          60.7422   87.0453   10.9414 C.ar    1  UNL1        0.1393
      7 N          61.6181   86.3671   11.9526 N.ar    1  UNL1       -0.2154
      8 N          63.5240   84.6940   12.5171 N.pl3   1  UNL1       -0.2819
      9 H          64.4060   85.0721   12.7369 H       1  UNL1        0.1551
     10 C          62.0875   79.6852   13.3708 C.3     1  UNL1        0.0515
     11 C          62.3958   81.1373   13.5859 C.ar    1  UNL1        0.0548
     12 C          62.8778   82.1004   12.5418 C.ar    1  UNL1        0.0502
     13 C          63.0561   83.4396   13.1935 C.ar    1  UNL1        0.1539
     14 N          62.6843   83.3042   14.6404 N.ar    1  UNL1       -0.1577
     15 N          62.2762   81.8813   14.8829 N.ar    1  UNL1       -0.2786
     16 H          61.9816   81.5023   15.7425 H       1  UNL1        0.1886
     17 C          60.0203   87.4071    8.4719 C.1     1  UNL1        0.1029
     18 N          59.1443   88.0853    7.4607 N.1     1  UNL1       -0.1907
     19 N          59.7123   88.0401   11.3882 N.pl3   1  UNL1       -0.3145
     20 H          58.7936   87.7442   11.5820 H       1  UNL1        0.1483
     21 C          60.0822   89.4859   11.5397 C.3     1  UNL1        0.1362
     22 C          61.5249   89.8963   11.5264 C.3     1  UNL1        0.2265
     23 O          62.4068   89.5751   12.6965 O.3     1  UNL1       -0.4728
     24 C          63.6355   90.3951   12.9570 C.ar    1  UNL1        0.1491
     25 C          64.0585   91.4457   11.9734 C.ar    1  UNL1        0.0378
     26 C          65.2872   92.2657   12.2339 C.ar    1  UNL1        0.0032
     27 C          66.0929   92.0351   13.4780 C.ar    1  UNL1        0.0011
     28 C          65.6700   90.9846   14.4615 C.ar    1  UNL1        0.0145
     29 C          64.4412   90.1645   14.2010 C.ar    1  UNL1        0.0915
     30 CL         64.0183   89.1140   15.1846 Cl      1  UNL1       -0.0791
@<TRIPOS>BOND
     1    10    11    1
     2    11    12   ar
     3    12    13   ar
     4    13     8    1
     5     8     1    1
     6     1     2   ar
     7     2     3   ar
     8     3     4    1
     9     3     5   ar
    10     5    17    1
    11    17    18    3
    12     5     6   ar
    13     6    19    1
    14    19    21    1
    15    21    22    1
    16    22    23    1
    17    23    24    1
    18    24    25   ar
    19    25    26   ar
    20    26    27   ar
    21    27    28   ar
    22    28    29   ar
    23    29    30    1
    24     6     7   ar
    25    13    14   ar
    26    14    15   ar
    27    15    11   ar
    28     7     1   ar
    29    29    24   ar
    30     8     9    1
    31    19    20    1
    32    15    16    1
@<TRIPOS>MOLECULE
*****
 30 32 0 0 0
SMALL
GASTEIGER

@<TRIPOS>ATOM
      1 C          64.3880   90.6157   14.1942 C.ar    1  UNL1        0.1344
      2 C          63.8450   91.2287   12.9375 C.ar    1  UNL1        0.0310
      3 C          63.2267   90.3576   11.8846 C.ar    1  UNL1       -0.0067
      4 C          62.6836   90.9706   10.6278 C.3     1  UNL1        0.0319
      5 C          63.1513   88.8734   12.0884 C.ar    1  UNL1        0.0959
      6 C          63.6942   88.2604   13.3451 C.ar    1  UNL1        0.1393
      7 N          64.3126   89.1315   14.3980 N.ar    1  UNL1       -0.2154
      8 N          65.0064   91.4869   15.2472 N.pl3   1  UNL1       -0.2819
      9 H          64.4881   91.7370   16.0459 H       1  UNL1        0.1551
     10 C          69.5474   94.0681   16.0202 C.3     1  UNL1        0.0515
     11 C          68.5018   93.1634   15.4385 C.ar    1  UNL1        0.0548
     12 C          67.1133   92.9645   15.9700 C.ar    1  UNL1        0.0502
     13 C          66.4145   91.9770   15.0832 C.ar    1  UNL1        0.1539
     14 N          67.3712   91.5655   14.0035 N.ar    1  UNL1       -0.1577
     15 N          68.6612   92.2988   14.2231 N.ar    1  UNL1       -0.2786
     16 H          69.4704   92.2255   13.6671 H       1  UNL1        0.1886
     17 C          62.5328   88.0022   11.0354 C.1     1  UNL1        0.1029
     18 N          61.9144   87.1311    9.9825 N.1     1  UNL1       -0.1907
     19 N          63.6188   86.7762   13.5489 N.pl3   1  UNL1       -0.3145
     20 H          63.1086   86.2181   12.9186 H       1  UNL1        0.1483
     21 C          64.3209   86.1424   14.7131 C.3     1  UNL1        0.1362
     22 C          64.1534   84.6763   14.9823 C.3     1  UNL1        0.2265
     23 O          62.9865   83.9353   14.3996 O.3     1  UNL1       -0.4728
     24 C          63.1602   83.1285   13.1470 C.ar    1  UNL1        0.1491
     25 C          64.0210   83.6479   12.0337 C.ar    1  UNL1        0.0378
     26 C          64.1947   82.8411   10.7811 C.ar    1  UNL1        0.0032
     27 C          63.5076   81.5150   10.6419 C.ar    1  UNL1        0.0011
     28 C          62.6469   80.9956   11.7552 C.ar    1  UNL1        0.0145
     29 C          62.4732   81.8024   13.0078 C.ar    1  UNL1        0.0915
     30 CL         61.6125   81.2830   14.1211 Cl      1  UNL1       -0.0791
@<TRIPOS>BOND
     1    10    11    1
     2    11    12   ar
     3    12    13   ar
     4    13     8    1
     5     8     1    1
     6     1     2   ar
     7     2     3   ar
     8     3     4    1
     9     3     5   ar
    10     5    17    1
    11    17    18    3
    12     5     6   ar
    13     6    19    1
    14    19    21    1
    15    21    22    1
    16    22    23    1
    17    23    24    1
    18    24    25   ar
    19    25    26   ar
    20    26    27   ar
    21    27    28   ar
    22    28    29   ar
    23    29    30    1
    24     6     7   ar
    25    13    14   ar
    26    14    15   ar
    27    15    11   ar
    28     7     1   ar
    29    29    24   ar
    30     8     9    1
    31    19    20    1
    32    15    16    1
@<TRIPOS>MOLECULE
*****
 30 32 0 0 0
SMALL
GASTEIGER

@<TRIPOS>ATOM
      1 C          64.5846   91.6346   12.5841 C.ar    1  UNL1        0.1344
      2 C          63.8904   91.3831   11.2785 C.ar    1  UNL1        0.0310
      3 C          63.1262   90.1096   11.0687 C.ar    1  UNL1       -0.0067
      4 C          62.4319   89.8579    9.7630 C.3     1  UNL1        0.0319
      5 C          63.0562   89.0876   12.1644 C.ar    1  UNL1        0.0959
      6 C          63.7505   89.3392   13.4700 C.ar    1  UNL1        0.1393
      7 N          64.5147   90.6127   13.6799 N.ar    1  UNL1       -0.2154
      8 N          65.3489   92.9082   12.7940 N.pl3   1  UNL1       -0.2819
      9 H          65.2961   93.3773   13.6580 H       1  UNL1        0.1551
     10 C          67.2607   96.1290    9.0722 C.3     1  UNL1        0.0515
     11 C          67.0724   94.9474    9.9769 C.ar    1  UNL1        0.0548
     12 C          66.0087   94.7995   11.0241 C.ar    1  UNL1        0.0502
     13 C          66.1937   93.4670   11.6876 C.ar    1  UNL1        0.1539
     14 N          67.3717   92.7914   11.0505 N.ar    1  UNL1       -0.1577
     15 N          67.9148   93.7063    9.9932 N.ar    1  UNL1       -0.2786
     16 H          68.6883   93.5243    9.4120 H       1  UNL1        0.1886
     17 C          62.2919   87.8140   11.9545 C.1     1  UNL1        0.1029
     18 N          61.5277   86.5406   11.7446 N.1     1  UNL1       -0.1907
     19 N          63.6805   88.3172   14.5658 N.pl3   1  UNL1       -0.3145
     20 H          63.0416   88.4321   15.3060 H       1  UNL1        0.1483
     21 C          64.5839   87.1202   14.5339 C.3     1  UNL1        0.1362
     22 C          64.0010   85.7390   14.5832 C.3     1  UNL1        0.2265
     23 O          64.4216   84.7110   13.5750 O.3     1  UNL1       -0.4728
     24 C          63.6268   83.4490   13.4144 C.ar    1  UNL1        0.1491
     25 C          62.7411   82.9737   14.5278 C.ar    1  UNL1        0.0378
     26 C          61.9464   81.7117   14.3672 C.ar    1  UNL1        0.0032
     27 C          62.0373   80.9251   13.0932 C.ar    1  UNL1        0.0011
     28 C          62.9230   81.4005   11.9798 C.ar    1  UNL1        0.0145
     29 C          63.7178   82.6624   12.1405 C.ar    1  UNL1        0.0915
     30 CL         64.6035   83.1378   11.0271 Cl      1  UNL1       -0.0791
@<TRIPOS>BOND
     1    10    11    1
     2    11    12   ar
     3    12    13   ar
     4    13     8    1
     5     8     1    1
     6     1     2   ar
     7     2     3   ar
     8     3     4    1
     9     3     5   ar
    10     5    17    1
    11    17    18    3
    12     5     6   ar
    13     6    19    1
    14    19    21    1
    15    21    22    1
    16    22    23    1
    17    23    24    1
    18    24    25   ar
    19    25    26   ar
    20    26    27   ar
    21    27    28   ar
    22    28    29   ar
    23    29    30    1
    24     6     7   ar
    25    13    14   ar
    26    14    15   ar
    27    15    11   ar
    28     7     1   ar
    29    29    24   ar
    30     8     9    1
    31    19    20    1
    32    15    16    1
@<TRIPOS>MOLECULE
*****
 30 32 0 0 0
SMALL
GASTEIGER

@<TRIPOS>ATOM
      1 C          62.0989   89.8999   10.9781 C.ar    1  UNL1        0.1344
      2 C          63.0173   91.0212   10.5920 C.ar    1  UNL1        0.0310
      3 C          64.1004   91.4610   11.5319 C.ar    1  UNL1       -0.0067
      4 C          65.0188   92.5824   11.1459 C.3     1  UNL1        0.0319
      5 C          64.2650   90.7794   12.8580 C.ar    1  UNL1        0.0959
      6 C          63.3466   89.6581   13.2441 C.ar    1  UNL1        0.1393
      7 N          62.2635   89.2184   12.3041 N.ar    1  UNL1       -0.2154
      8 N          61.0157   89.4601   10.0381 N.pl3   1  UNL1       -0.2819
      9 H          60.2479   90.0503    9.8613 H       1  UNL1        0.1551
     10 C          62.8750   84.8616    8.2279 C.3     1  UNL1        0.0515
     11 C          61.9572   86.0074    8.5356 C.ar    1  UNL1        0.0548
     12 C          62.3202   87.2480    9.2966 C.ar    1  UNL1        0.0502
     13 C          61.1025   88.1211    9.3677 C.ar    1  UNL1        0.1539
     14 N          59.9870   87.4201    8.6507 N.ar    1  UNL1       -0.1577
     15 N          60.5151   86.1137    8.1364 N.ar    1  UNL1       -0.2786
     16 H          60.0049   85.4437    7.6265 H       1  UNL1        0.1886
     17 C          65.3482   91.2192   13.7979 C.1     1  UNL1        0.1029
     18 N          66.4312   91.6590   14.7378 N.1     1  UNL1       -0.1907
     19 N          63.5112   88.9766   14.5701 N.pl3   1  UNL1       -0.3145
     20 H          62.9218   89.2138   15.3221 H       1  UNL1        0.1483
     21 C          64.5740   87.9335   14.7504 C.3     1  UNL1        0.1362
     22 C          64.2386   86.4824   14.5719 C.3     1  UNL1        0.2265
     23 O          63.2186   86.0682   13.5530 O.3     1  UNL1       -0.4728
     24 C          62.9779   84.6127   13.2815 C.ar    1  UNL1        0.1491
     25 C          63.1962   84.0606   11.9040 C.ar    1  UNL1        0.0378
     26 C          62.9555   82.6051   11.6325 C.ar    1  UNL1        0.0032
     27 C          62.4964   81.7018   12.7386 C.ar    1  UNL1        0.0011
     28 C          62.2782   82.2539   14.1161 C.ar    1  UNL1        0.0145
     29 C          62.5189   83.7094   14.3875 C.ar    1  UNL1        0.0915
     30 CL         62.3006   84.2615   15.7651 Cl      1  UNL1       -0.0791
@<TRIPOS>BOND
     1    10    11    1
     2    11    12   ar
     3    12    13   ar
     4    13     8    1
     5     8     1    1
     6     1     2   ar
     7     2     3   ar
     8     3     4    1
     9     3     5   ar
    10     5    17    1
    11    17    18    3
    12     5     6   ar
    13     6    19    1
    14    19    21    1
    15    21    22    1
    16    22    23    1
    17    23    24    1
    18    24    25   ar
    19    25    26   ar
    20    26    27   ar
    21    27    28   ar
    22    28    29   ar
    23    29    30    1
    24     6     7   ar
    25    13    14   ar
    26    14    15   ar
    27    15    11   ar
    28     7     1   ar
    29    29    24   ar
    30     8     9    1
    31    19    20    1
    32    15    16    1
@<TRIPOS>MOLECULE
*****
 30 32 0 0 0
SMALL
GASTEIGER

@<TRIPOS>ATOM
      1 C          64.1715   90.8929   14.7989 C.ar    1  UNL1        0.1344
      2 C          65.3730   91.6872   15.2177 C.ar    1  UNL1        0.0310
      3 C          66.1267   92.4973   14.2050 C.ar    1  UNL1       -0.0067
      4 C          67.3283   93.2917   14.6239 C.3     1  UNL1        0.0319
      5 C          65.6789   92.5132   12.7735 C.ar    1  UNL1        0.0959
      6 C          64.4774   91.7189   12.3547 C.ar    1  UNL1        0.1393
      7 N          63.7237   90.9088   13.3674 N.ar    1  UNL1       -0.2154
      8 N          63.4177   90.0828   15.8116 N.pl3   1  UNL1       -0.2819
      9 H          62.8381   90.5319   16.4686 H       1  UNL1        0.1551
     10 C          64.8220   85.1537   14.5417 C.3     1  UNL1        0.0515
     11 C          64.1925   86.3228   15.2396 C.ar    1  UNL1        0.0548
     12 C          64.3454   87.7650   14.8567 C.ar    1  UNL1        0.0502
     13 C          63.5470   88.5884   15.8233 C.ar    1  UNL1        0.1539
     14 N          62.9006   87.6551   16.8037 N.ar    1  UNL1       -0.1577
     15 N          63.2995   86.2549   16.4430 N.ar    1  UNL1       -0.2786
     16 H          63.0237   85.4352   16.9134 H       1  UNL1        0.1886
     17 C          66.4327   93.3233   11.7608 C.1     1  UNL1        0.1029
     18 N          67.1865   94.1334   10.7482 N.1     1  UNL1       -0.1907
     19 N          64.0296   91.7347   10.9232 N.pl3   1  UNL1       -0.3145
     20 H          64.3054   92.4699   10.3292 H       1  UNL1        0.1483
     21 C          63.1617   90.6305   10.3966 C.3     1  UNL1        0.1362
     22 C          61.6778   90.6758   10.6110 C.3     1  UNL1        0.2265
     23 O          60.9341   89.4249   10.9748 O.3     1  UNL1       -0.4728
     24 C          60.7406   88.3435    9.9534 C.ar    1  UNL1        0.1491
     25 C          59.8351   88.5736    8.7799 C.ar    1  UNL1        0.0378
     26 C          59.6416   87.4922    7.7585 C.ar    1  UNL1        0.0032
     27 C          60.3537   86.1807    7.9107 C.ar    1  UNL1        0.0011
     28 C          61.2592   85.9507    9.0842 C.ar    1  UNL1        0.0145
     29 C          61.4526   87.0321   10.1056 C.ar    1  UNL1        0.0915
     30 CL         62.3582   86.8021   11.2791 Cl      1  UNL1       -0.0791
@<TRIPOS>BOND
     1    10    11    1
     2    11    12   ar
     3    12    13   ar
     4    13     8    1
     5     8     1    1
     6     1     2   ar
     7     2     3   ar
     8     3     4    1
     9     3     5   ar
    10     5    17    1
    11    17    18    3
    12     5     6   ar
    13     6    19    1
    14    19    21    1
    15    21    22    1
    16    22    23    1
    17    23    24    1
    18    24    25   ar
    19    25    26   ar
    20    26    27   ar
    21    27    28   ar
    22    28    29   ar
    23    29    30    1
    24     6     7   ar
    25    13    14   ar
    26    14    15   ar
    27    15    11   ar
    28     7     1   ar
    29    29    24   ar
    30     8     9    1
    31    19    20    1
    32    15    16    1
@<TRIPOS>MOLECULE
*****
 30 32 0 0 0
SMALL
GASTEIGER

@<TRIPOS>ATOM
      1 C          63.7673   89.9433   14.7295 C.ar    1  UNL1        0.1344
      2 C          65.0091   90.7733   14.8666 C.ar    1  UNL1        0.0310
      3 C          65.4597   91.6422   13.7300 C.ar    1  UNL1       -0.0067
      4 C          66.7016   92.4723   13.8670 C.3     1  UNL1        0.0319
      5 C          64.6684   91.6811   12.4563 C.ar    1  UNL1        0.0959
      6 C          63.4265   90.8511   12.3192 C.ar    1  UNL1        0.1393
      7 N          62.9759   89.9822   13.4558 N.ar    1  UNL1       -0.2154
      8 N          63.3166   89.0744   15.8662 N.pl3   1  UNL1       -0.2819
      9 H          62.8600   89.4749   16.6410 H       1  UNL1        0.1551
     10 C          65.1424   84.3265   14.4503 C.3     1  UNL1        0.0515
     11 C          64.4010   85.4129   15.1716 C.ar    1  UNL1        0.0548
     12 C          64.4534   86.8777   14.8528 C.ar    1  UNL1        0.0502
     13 C          63.5618   87.5952   15.8224 C.ar    1  UNL1        0.1539
     14 N          62.9584   86.5739   16.7405 N.ar    1  UNL1       -0.1577
     15 N          63.4770   85.2251   16.3383 N.ar    1  UNL1       -0.2786
     16 H          63.2508   84.3673   16.7651 H       1  UNL1        0.1886
     17 C          65.1190   92.5501   11.3196 C.1     1  UNL1        0.1029
     18 N          65.5696   93.4190   10.1830 N.1     1  UNL1       -0.1907
     19 N          62.6352   90.8900   11.0455 N.pl3   1  UNL1       -0.3145
     20 H          62.0927   91.6820   10.8270 H       1  UNL1        0.1483
     21 C          62.6704   89.7223   10.1047 C.3     1  UNL1        0.1362
     22 C          61.5188   88.7623   10.0574 C.3     1  UNL1        0.2265
     23 O          61.6435   87.4787    9.2913 O.3     1  UNL1       -0.4728
     24 C          62.1585   86.2456    9.9728 C.ar    1  UNL1        0.1491
     25 C          61.9691   86.0708   11.4505 C.ar    1  UNL1        0.0378
     26 C          62.4841   84.8378   12.1320 C.ar    1  UNL1        0.0032
     27 C          63.1884   83.7795   11.3357 C.ar    1  UNL1        0.0011
     28 C          63.3778   83.9543    9.8580 C.ar    1  UNL1        0.0145
     29 C          62.8628   85.1874    9.1766 C.ar    1  UNL1        0.0915
     30 CL         63.0522   85.3621    7.6988 Cl      1  UNL1       -0.0791
@<TRIPOS>BOND
     1    10    11    1
     2    11    12   ar
     3    12    13   ar
     4    13     8    1
     5     8     1    1
     6     1     2   ar
     7     2     3   ar
     8     3     4    1
     9     3     5   ar
    10     5    17    1
    11    17    18    3
    12     5     6   ar
    13     6    19    1
    14    19    21    1
    15    21    22    1
    16    22    23    1
    17    23    24    1
    18    24    25   ar
    19    25    26   ar
    20    26    27   ar
    21    27    28   ar
    22    28    29   ar
    23    29    30    1
    24     6     7   ar
    25    13    14   ar
    26    14    15   ar
    27    15    11   ar
    28     7     1   ar
    29    29    24   ar
    30     8     9    1
    31    19    20    1
    32    15    16    1
@<TRIPOS>MOLECULE
*****
 30 32 0 0 0
SMALL
GASTEIGER

@<TRIPOS>ATOM
      1 C          63.7602   90.7989   12.5407 C.ar    1  UNL1        0.1344
      2 C          62.9262   90.8952   11.2977 C.ar    1  UNL1        0.0310
      3 C          62.3024   89.6615   10.7157 C.ar    1  UNL1       -0.0067
      4 C          61.4683   89.7578    9.4726 C.3     1  UNL1        0.0319
      5 C          62.5127   88.3315   11.3766 C.ar    1  UNL1        0.0959
      6 C          63.3468   88.2352   12.6196 C.ar    1  UNL1        0.1393
      7 N          63.9705   89.4689   13.2016 N.ar    1  UNL1       -0.2154
      8 N          64.3840   92.0327   13.1228 N.pl3   1  UNL1       -0.2819
      9 H          63.8592   92.8625   13.1948 H       1  UNL1        0.1551
     10 C          68.6415   92.1086   16.2450 C.3     1  UNL1        0.0515
     11 C          67.7642   92.0369   15.0304 C.ar    1  UNL1        0.0548
     12 C          66.2664   92.1168   15.0186 C.ar    1  UNL1        0.0502
     13 C          65.8073   92.0020   13.5953 C.ar    1  UNL1        0.1539
     14 N          67.0213   91.8512   12.7273 N.ar    1  UNL1       -0.1577
     15 N          68.2308   91.8728   13.6142 N.ar    1  UNL1       -0.2786
     16 H          69.1666   91.7931   13.3188 H       1  UNL1        0.1886
     17 C          61.8889   87.0977   10.7944 C.1     1  UNL1        0.1029
     18 N          61.2652   85.8640   10.2123 N.1     1  UNL1       -0.1907
     19 N          63.5571   86.9052   13.2805 N.pl3   1  UNL1       -0.3145
     20 H          63.1638   86.0926   12.8876 H       1  UNL1        0.1483
     21 C          64.3664   86.8132   14.5400 C.3     1  UNL1        0.1362
     22 C          64.8686   85.4813   15.0132 C.3     1  UNL1        0.2265
     23 O          65.1063   84.3760   14.0274 O.3     1  UNL1       -0.4728
     24 C          64.0164   83.3892   13.7299 C.ar    1  UNL1        0.1491
     25 C          63.0919   82.9408   14.8227 C.ar    1  UNL1        0.0378
     26 C          62.0020   81.9540   14.5252 C.ar    1  UNL1        0.0032
     27 C          61.8367   81.4156   13.1349 C.ar    1  UNL1        0.0011
     28 C          62.7613   81.8640   12.0422 C.ar    1  UNL1        0.0145
     29 C          63.8511   82.8508   12.3396 C.ar    1  UNL1        0.0915
     30 CL         64.7757   83.2992   11.2468 Cl      1  UNL1       -0.0791
@<TRIPOS>BOND
     1    10    11    1
     2    11    12   ar
     3    12    13   ar
     4    13     8    1
     5     8     1    1
     6     1     2   ar
     7     2     3   ar
     8     3     4    1
     9     3     5   ar
    10     5    17    1
    11    17    18    3
    12     5     6   ar
    13     6    19    1
    14    19    21    1
    15    21    22    1
    16    22    23    1
    17    23    24    1
    18    24    25   ar
    19    25    26   ar
    20    26    27   ar
    21    27    28   ar
    22    28    29   ar
    23    29    30    1
    24     6     7   ar
    25    13    14   ar
    26    14    15   ar
    27    15    11   ar
    28     7     1   ar
    29    29    24   ar
    30     8     9    1
    31    19    20    1
    32    15    16    1
@<TRIPOS>MOLECULE
*****
 30 32 0 0 0
SMALL
GASTEIGER

@<TRIPOS>ATOM
      1 C          64.3430   85.4077   14.9405 C.ar    1  UNL1        0.1344
      2 C          63.7187   85.5562   16.2963 C.ar    1  UNL1        0.0310
      3 C          63.3455   86.9170   16.8051 C.ar    1  UNL1       -0.0067
      4 C          62.7211   87.0656   18.1609 C.3     1  UNL1        0.0319
      5 C          63.5966   88.1293   15.9581 C.ar    1  UNL1        0.0959
      6 C          64.2209   87.9808   14.6023 C.ar    1  UNL1        0.1393
      7 N          64.5941   86.6200   14.0935 N.ar    1  UNL1       -0.2154
      8 N          64.7163   84.0469   14.4316 N.pl3   1  UNL1       -0.2819
      9 H          65.6552   83.7521   14.4576 H       1  UNL1        0.1551
     10 C          60.6062   80.7482   14.1046 C.3     1  UNL1        0.0515
     11 C          61.7697   81.6190   13.7329 C.ar    1  UNL1        0.0548
     12 C          62.6134   82.4160   14.6831 C.ar    1  UNL1        0.0502
     13 C          63.6589   83.1352   13.8832 C.ar    1  UNL1        0.1539
     14 N          63.4613   82.7826   12.4387 N.ar    1  UNL1       -0.1577
     15 N          62.2937   81.8456   12.3457 N.ar    1  UNL1       -0.2786
     16 H          61.9344   81.4489   11.5194 H       1  UNL1        0.1886
     17 C          63.2233   89.4901   16.4670 C.1     1  UNL1        0.1029
     18 N          62.8501   90.8509   16.9758 N.1     1  UNL1       -0.1907
     19 N          64.4720   89.1931   13.7554 N.pl3   1  UNL1       -0.3145
     20 H          65.3623   89.6133   13.7490 H       1  UNL1        0.1483
     21 C          63.3667   89.7650   12.9181 C.3     1  UNL1        0.1362
     22 C          62.8715   89.0161   11.7165 C.3     1  UNL1        0.2265
     23 O          61.4314   88.6053   11.6297 O.3     1  UNL1       -0.4728
     24 C          60.8599   88.1467   10.3209 C.ar    1  UNL1        0.1491
     25 C          60.2507   89.1422    9.3786 C.ar    1  UNL1        0.0378
     26 C          59.6791   88.6837    8.0698 C.ar    1  UNL1        0.0032
     27 C          59.7168   87.2296    7.7032 C.ar    1  UNL1        0.0011
     28 C          60.3260   86.2341    8.6455 C.ar    1  UNL1        0.0145
     29 C          60.8976   86.6927    9.9543 C.ar    1  UNL1        0.0915
     30 CL         61.5068   85.6972   10.8966 Cl      1  UNL1       -0.0791
@<TRIPOS>BOND
     1    10    11    1
     2    11    12   ar
     3    12    13   ar
     4    13     8    1
     5     8     1    1
     6     1     2   ar
     7     2     3   ar
     8     3     4    1
     9     3     5   ar
    10     5    17    1
    11    17    18    3
    12     5     6   ar
    13     6    19    1
    14    19    21    1
    15    21    22    1
    16    22    23    1
    17    23    24    1
    18    24    25   ar
    19    25    26   ar
    20    26    27   ar
    21    27    28   ar
    22    28    29   ar
    23    29    30    1
    24     6     7   ar
    25    13    14   ar
    26    14    15   ar
    27    15    11   ar
    28     7     1   ar
    29    29    24   ar
    30     8     9    1
    31    19    20    1
    32    15    16    1
@<TRIPOS>MOLECULE
*****
 30 32 0 0 0
SMALL
GASTEIGER

@<TRIPOS>ATOM
      1 C          62.3812   86.1781   11.2256 C.ar    1  UNL1        0.1344
      2 C          62.2813   84.6818   11.1930 C.ar    1  UNL1        0.0310
      3 C          62.7871   83.8710   12.3491 C.ar    1  UNL1       -0.0067
      4 C          62.6872   82.3747   12.3165 C.3     1  UNL1        0.0319
      5 C          63.3928   84.5565   13.5379 C.ar    1  UNL1        0.0959
      6 C          63.4928   86.0528   13.5705 C.ar    1  UNL1        0.1393
      7 N          62.9869   86.8636   12.4144 N.ar    1  UNL1       -0.2154
      8 N          61.8753   86.9890   10.0695 N.pl3   1  UNL1       -0.2819
      9 H          61.8635   87.9719   10.1253 H       1  UNL1        0.1551
     10 C          61.7647   84.2030    5.5855 C.3     1  UNL1        0.0515
     11 C          61.3368   85.0219    6.7672 C.ar    1  UNL1        0.0548
     12 C          62.2330   85.5364    7.8544 C.ar    1  UNL1        0.0502
     13 C          61.3876   86.3024    8.8282 C.ar    1  UNL1        0.1539
     14 N          59.9689   86.2614    8.3429 N.ar    1  UNL1       -0.1577
     15 N          59.9374   85.4699    7.0691 N.ar    1  UNL1       -0.2786
     16 H          59.1386   85.2782    6.5265 H       1  UNL1        0.1886
     17 C          63.8987   83.7456   14.6940 C.1     1  UNL1        0.1029
     18 N          64.4045   82.9348   15.8501 N.1     1  UNL1       -0.1907
     19 N          64.0985   86.7382   14.7593 N.pl3   1  UNL1       -0.3145
     20 H          64.2441   86.2380   15.5947 H       1  UNL1        0.1483
     21 C          64.4824   88.1858   14.6754 C.3     1  UNL1        0.1362
     22 C          63.6227   89.2287   15.3260 C.3     1  UNL1        0.2265
     23 O          63.2313   90.4601   14.5640 O.3     1  UNL1       -0.4728
     24 C          64.2401   91.1624   13.7043 C.ar    1  UNL1        0.1491
     25 C          65.5082   91.6856   14.3111 C.ar    1  UNL1        0.0378
     26 C          66.5170   92.3879   13.4514 C.ar    1  UNL1        0.0032
     27 C          66.2577   92.5670   11.9848 C.ar    1  UNL1        0.0011
     28 C          64.9896   92.0437   11.3781 C.ar    1  UNL1        0.0145
     29 C          63.9808   91.3415   12.2378 C.ar    1  UNL1        0.0915
     30 CL         62.7127   90.8182   11.6310 Cl      1  UNL1       -0.0791
@<TRIPOS>BOND
     1    10    11    1
     2    11    12   ar
     3    12    13   ar
     4    13     8    1
     5     8     1    1
     6     1     2   ar
     7     2     3   ar
     8     3     4    1
     9     3     5   ar
    10     5    17    1
    11    17    18    3
    12     5     6   ar
    13     6    19    1
    14    19    21    1
    15    21    22    1
    16    22    23    1
    17    23    24    1
    18    24    25   ar
    19    25    26   ar
    20    26    27   ar
    21    27    28   ar
    22    28    29   ar
    23    29    30    1
    24     6     7   ar
    25    13    14   ar
    26    14    15   ar
    27    15    11   ar
    28     7     1   ar
    29    29    24   ar
    30     8     9    1
    31    19    20    1
    32    15    16    1
