@<TRIPOS>MOLECULE
*****
 40 44 0 0 0
SMALL
GASTEIGER

@<TRIPOS>ATOM
      1 N          72.5874   73.9665   14.0092 N.am    1  UNL1       -0.2533
      2 C          72.3875   75.1168   13.0674 C.2     1  UNL1        0.3092
      3 O          71.2952   75.0645   12.0407 O.2     1  UNL1       -0.2521
      4 N          73.2799   76.3194   13.1524 N.am    1  UNL1       -0.2680
      5 H          73.3043   74.0008   14.6831 H       1  UNL1        0.1578
      6 H          73.9968   76.3537   13.8263 H       1  UNL1        0.1564
      7 C          73.0800   77.4697   12.2107 C.ar    1  UNL1        0.0517
      8 C          73.6329   77.4036   10.8179 C.ar    1  UNL1        0.0162
      9 C          73.4331   78.5539    9.8762 C.ar    1  UNL1        0.0189
     10 C          72.6803   79.7704   10.3273 C.ar    1  UNL1        0.0669
     11 C          72.1274   79.8365   11.7201 C.ar    1  UNL1        0.0189
     12 C          72.3273   78.6862   12.6618 C.ar    1  UNL1        0.0162
     13 N          72.4804   80.9208    9.3856 N.ar    1  UNL1       -0.2729
     14 C          72.5393   82.3756    9.7459 C.ar    1  UNL1        0.1840
     15 N          72.2819   83.1722    8.5012 N.ar    1  UNL1       -0.2192
     16 C          72.0639   82.2096    7.3716 C.ar    1  UNL1        0.1484
     17 C          71.7695   82.4203    5.9160 C.ar    1  UNL1        0.1480
     18 N          71.6468   83.8118    5.3694 N.pl3   1  UNL1       -0.3413
     19 N          71.5978   81.2396    5.0070 N.ar    1  UNL1       -0.2078
     20 C          71.7205   79.8481    5.5536 C.ar    1  UNL1        0.2015
     21 N          72.0149   79.6374    7.0092 N.ar    1  UNL1       -0.2045
     22 C          72.1866   80.8181    7.9182 C.ar    1  UNL1        0.1711
     23 H          71.7595   84.5867    5.9661 H       1  UNL1        0.1438
     24 H          71.4536   83.9501    4.4140 H       1  UNL1        0.1438
     25 N          71.1529   71.9843   15.0854 N.ar    1  UNL1       -0.2162
     26 N          70.3108   70.8683   14.5420 N.ar    1  UNL1       -0.1683
     27 C          70.3324   70.9581   13.0449 C.ar    1  UNL1        0.0810
     28 C          71.1879   72.1296   12.6630 C.ar    1  UNL1        0.0509
     29 C          71.6949   72.7638   13.9242 C.ar    1  UNL1        0.1380
     30 C          72.1739   73.1294   20.8860 C.3     1  UNL1        0.0310
     31 C          71.9186   72.8431   19.4359 C.ar    1  UNL1       -0.0218
     32 C          70.6408   72.1791   19.0161 C.ar    1  UNL1       -0.0027
     33 C          70.3855   71.8928   17.5659 C.ar    1  UNL1        0.0189
     34 C          71.4081   72.2706   16.5356 C.ar    1  UNL1        0.0842
     35 C          72.6860   72.9347   16.9554 C.ar    1  UNL1        0.0189
     36 C          72.9412   73.2209   18.4055 C.ar    1  UNL1       -0.0027
     37 C          69.6231   70.0378   12.0961 C.3     1  UNL1        0.0372
     38 C          69.5761   71.1315   11.0706 C.3     1  UNL1        0.0060
     39 C          69.6701   68.9442   13.1216 C.3     1  UNL1        0.0060
     40 C          68.9138   69.1177   11.1473 C.3     1  UNL1        0.0060
@<TRIPOS>BOND
     1    30    31    1
     2    31    32   ar
     3    32    33   ar
     4    33    34   ar
     5    34    25    1
     6    25    26   ar
     7    26    27   ar
     8    27    37    1
     9    37    38    1
    10    37    39    1
    11    37    40    1
    12    27    28   ar
    13    28    29   ar
    14    29     1    1
    15     1     2   am
    16     2     3    2
    17     2     4   am
    18     4     7    1
    19     7     8   ar
    20     8     9   ar
    21     9    10   ar
    22    10    13    1
    23    13    14   ar
    24    14    15   ar
    25    15    16   ar
    26    16    17   ar
    27    17    18    1
    28    17    19   ar
    29    19    20   ar
    30    20    21   ar
    31    21    22   ar
    32    10    11   ar
    33    11    12   ar
    34    34    35   ar
    35    35    36   ar
    36    36    31   ar
    37    29    25   ar
    38    12     7   ar
    39    22    13   ar
    40    22    16   ar
    41     1     5    1
    42     4     6    1
    43    18    23    1
    44    18    24    1
@<TRIPOS>MOLECULE
*****
 40 44 0 0 0
SMALL
GASTEIGER

@<TRIPOS>ATOM
      1 N          63.0919   86.2249   14.5998 N.am    1  UNL1       -0.2533
      2 C          63.5938   87.4410   13.8791 C.2     1  UNL1        0.3092
      3 O          63.8490   87.3855   12.4021 O.2     1  UNL1       -0.2521
      4 N          63.8405   88.7125   14.6356 N.am    1  UNL1       -0.2680
      5 H          62.9244   86.2614   15.5693 H       1  UNL1        0.1578
      6 H          63.6731   88.7489   15.6051 H       1  UNL1        0.1564
      7 C          64.3424   89.9286   13.9150 C.ar    1  UNL1        0.0517
      8 C          65.5216   90.6848   14.4513 C.ar    1  UNL1        0.0162
      9 C          66.0235   91.9009   13.7307 C.ar    1  UNL1        0.0189
     10 C          65.3462   92.3608   12.4738 C.ar    1  UNL1        0.0669
     11 C          64.1670   91.6046   11.9376 C.ar    1  UNL1        0.0189
     12 C          63.6651   90.3885   12.6582 C.ar    1  UNL1        0.0162
     13 N          65.8481   93.5769   11.7532 N.ar    1  UNL1       -0.2729
     14 C          65.5669   95.0021   12.1272 C.ar    1  UNL1        0.1840
     15 N          66.2643   95.8872   11.1372 N.ar    1  UNL1       -0.2192
     16 C          66.9765   95.0092   10.1514 C.ar    1  UNL1        0.1484
     17 C          67.8259   95.3253    8.9562 C.ar    1  UNL1        0.1480
     18 N          68.0832   96.7532    8.5755 N.pl3   1  UNL1       -0.3413
     19 N          68.4181   94.2136    8.1418 N.ar    1  UNL1       -0.2078
     20 C          68.1608   92.7857    8.5225 C.ar    1  UNL1        0.2015
     21 N          67.3114   92.4695    9.7176 N.ar    1  UNL1       -0.2045
     22 C          66.7192   93.5813   10.5321 C.ar    1  UNL1        0.1711
     23 H          67.6945   97.4829    9.1101 H       1  UNL1        0.1438
     24 H          68.6408   96.9607    7.7911 H       1  UNL1        0.1438
     25 N          62.2766   84.8470   12.4594 N.ar    1  UNL1       -0.2162
     26 N          62.2037   83.3928   12.0987 N.ar    1  UNL1       -0.1683
     27 C          62.7273   82.6005   13.2598 C.ar    1  UNL1        0.0810
     28 C          63.1237   83.5649   14.3380 C.ar    1  UNL1        0.0509
     29 C          62.8452   84.9534   13.8434 C.ar    1  UNL1        0.1380
     30 C          60.5900   89.4330    8.9775 C.3     1  UNL1        0.0310
     31 C          61.0116   88.2865    9.8479 C.ar    1  UNL1       -0.0218
     32 C          60.4534   88.1521   11.2337 C.ar    1  UNL1       -0.0027
     33 C          60.8751   87.0056   12.1042 C.ar    1  UNL1        0.0189
     34 C          61.8550   85.9935   11.5889 C.ar    1  UNL1        0.0842
     35 C          62.4132   86.1279   10.2031 C.ar    1  UNL1        0.0189
     36 C          61.9915   87.2744    9.3327 C.ar    1  UNL1       -0.0027
     37 C          62.8354   81.1060   13.3302 C.3     1  UNL1        0.0372
     38 C          61.4883   81.0395   13.9866 C.3     1  UNL1        0.0060
     39 C          64.1824   81.1725   12.6738 C.3     1  UNL1        0.0060
     40 C          62.9434   79.6116   13.4006 C.3     1  UNL1        0.0060
@<TRIPOS>BOND
     1    30    31    1
     2    31    32   ar
     3    32    33   ar
     4    33    34   ar
     5    34    25    1
     6    25    26   ar
     7    26    27   ar
     8    27    37    1
     9    37    38    1
    10    37    39    1
    11    37    40    1
    12    27    28   ar
    13    28    29   ar
    14    29     1    1
    15     1     2   am
    16     2     3    2
    17     2     4   am
    18     4     7    1
    19     7     8   ar
    20     8     9   ar
    21     9    10   ar
    22    10    13    1
    23    13    14   ar
    24    14    15   ar
    25    15    16   ar
    26    16    17   ar
    27    17    18    1
    28    17    19   ar
    29    19    20   ar
    30    20    21   ar
    31    21    22   ar
    32    10    11   ar
    33    11    12   ar
    34    34    35   ar
    35    35    36   ar
    36    36    31   ar
    37    29    25   ar
    38    12     7   ar
    39    22    13   ar
    40    22    16   ar
    41     1     5    1
    42     4     6    1
    43    18    23    1
    44    18    24    1
@<TRIPOS>MOLECULE
*****
 40 44 0 0 0
SMALL
GASTEIGER

@<TRIPOS>ATOM
      1 N          64.0932   92.8358   12.0582 N.am    1  UNL1       -0.2533
      2 C          64.0815   91.3497   11.8544 C.2     1  UNL1        0.3092
      3 O          65.1105   90.7053   10.9736 O.2     1  UNL1       -0.2521
      4 N          63.0407   90.5081   12.5316 N.am    1  UNL1       -0.2680
      5 H          63.4178   93.2587   12.6363 H       1  UNL1        0.1578
      6 H          62.3654   90.9311   13.1097 H       1  UNL1        0.1564
      7 C          63.0290   89.0220   12.3279 C.ar    1  UNL1        0.0517
      8 C          63.7085   88.1238   13.3185 C.ar    1  UNL1        0.0162
      9 C          63.6967   86.6378   13.1148 C.ar    1  UNL1        0.0189
     10 C          63.0054   86.0499   11.9204 C.ar    1  UNL1        0.0669
     11 C          62.3260   86.9481   10.9298 C.ar    1  UNL1        0.0189
     12 C          62.3377   88.4342   11.1335 C.ar    1  UNL1        0.0162
     13 N          62.9937   84.5638   11.7166 N.ar    1  UNL1       -0.2729
     14 C          63.2800   83.8480   10.4300 C.ar    1  UNL1        0.1840
     15 N          63.1568   82.3745   10.6820 N.ar    1  UNL1       -0.2192
     16 C          62.7943   82.1796   12.1245 C.ar    1  UNL1        0.1484
     17 C          62.5430   80.9449   12.9383 C.ar    1  UNL1        0.1480
     18 N          62.6439   79.5918   12.2988 N.pl3   1  UNL1       -0.3413
     19 N          62.1909   81.0633   14.3915 N.ar    1  UNL1       -0.2078
     20 C          62.0901   82.4164   15.0309 C.ar    1  UNL1        0.2015
     21 N          62.3414   83.6511   14.2172 N.ar    1  UNL1       -0.2045
     22 C          62.6935   83.5327   12.7639 C.ar    1  UNL1        0.1711
     23 H          62.8750   79.5141   11.3450 H       1  UNL1        0.1438
     24 H          62.4789   78.7814   12.8329 H       1  UNL1        0.1438
     25 N          66.5293   93.9205   11.8748 N.ar    1  UNL1       -0.2162
     26 N          67.2198   94.8171   10.8902 N.ar    1  UNL1       -0.1683
     27 C          66.2511   95.1281    9.7880 C.ar    1  UNL1        0.0810
     28 C          64.9620   94.4238   10.0913 C.ar    1  UNL1        0.0509
     29 C          65.1339   93.6774   11.3811 C.ar    1  UNL1        0.1380
     30 C          68.9278   91.6970   16.9050 C.3     1  UNL1        0.0310
     31 C          68.3282   92.2528   15.6474 C.ar    1  UNL1       -0.0218
     32 C          67.3639   93.3995   15.7196 C.ar    1  UNL1       -0.0027
     33 C          66.7642   93.9555   14.4620 C.ar    1  UNL1        0.0189
     34 C          67.1289   93.3647   13.1323 C.ar    1  UNL1        0.0842
     35 C          68.0933   92.2179   13.0602 C.ar    1  UNL1        0.0189
     36 C          68.6929   91.6620   14.3178 C.ar    1  UNL1       -0.0027
     37 C          66.5238   95.9919    8.5922 C.3     1  UNL1        0.0372
     38 C          67.7070   95.1378    8.2452 C.3     1  UNL1        0.0060
     39 C          65.3405   96.8459    8.9394 C.3     1  UNL1        0.0060
     40 C          66.7965   96.8555    7.3966 C.3     1  UNL1        0.0060
@<TRIPOS>BOND
     1    30    31    1
     2    31    32   ar
     3    32    33   ar
     4    33    34   ar
     5    34    25    1
     6    25    26   ar
     7    26    27   ar
     8    27    37    1
     9    37    38    1
    10    37    39    1
    11    37    40    1
    12    27    28   ar
    13    28    29   ar
    14    29     1    1
    15     1     2   am
    16     2     3    2
    17     2     4   am
    18     4     7    1
    19     7     8   ar
    20     8     9   ar
    21     9    10   ar
    22    10    13    1
    23    13    14   ar
    24    14    15   ar
    25    15    16   ar
    26    16    17   ar
    27    17    18    1
    28    17    19   ar
    29    19    20   ar
    30    20    21   ar
    31    21    22   ar
    32    10    11   ar
    33    11    12   ar
    34    34    35   ar
    35    35    36   ar
    36    36    31   ar
    37    29    25   ar
    38    12     7   ar
    39    22    13   ar
    40    22    16   ar
    41     1     5    1
    42     4     6    1
    43    18    23    1
    44    18    24    1
@<TRIPOS>MOLECULE
*****
 40 44 0 0 0
SMALL
GASTEIGER

@<TRIPOS>ATOM
      1 N          62.9973   85.6552   14.2662 N.am    1  UNL1       -0.2533
      2 C          63.5244   86.9438   13.7079 C.2     1  UNL1        0.3092
      3 O          63.7889   87.0714   12.2369 O.2     1  UNL1       -0.2521
      4 N          63.7870   88.1048   14.6206 N.am    1  UNL1       -0.2680
      5 H          62.8238   85.5714   15.2317 H       1  UNL1        0.1578
      6 H          63.6134   88.0211   15.5860 H       1  UNL1        0.1564
      7 C          64.3141   89.3934   14.0623 C.ar    1  UNL1        0.0517
      8 C          63.7235   89.9643   12.8072 C.ar    1  UNL1        0.0162
      9 C          64.2506   91.2529   12.2490 C.ar    1  UNL1        0.0189
     10 C          65.3683   91.9707   12.9459 C.ar    1  UNL1        0.0669
     11 C          65.9588   91.3998   14.2010 C.ar    1  UNL1        0.0189
     12 C          65.4318   90.1112   14.7592 C.ar    1  UNL1        0.0162
     13 N          65.8954   93.2594   12.3877 N.ar    1  UNL1       -0.2729
     14 C          65.8187   94.6035   13.0490 C.ar    1  UNL1        0.1840
     15 N          66.4676   95.6049   12.1401 N.ar    1  UNL1       -0.2192
     16 C          66.9454   94.8797   10.9171 C.ar    1  UNL1        0.1484
     17 C          67.6568   95.3520    9.6839 C.ar    1  UNL1        0.1480
     18 N          68.0104   96.8017    9.5309 N.pl3   1  UNL1       -0.3413
     19 N          68.0145   94.3747    8.6037 N.ar    1  UNL1       -0.2078
     20 C          67.6609   92.9250    8.7567 C.ar    1  UNL1        0.2015
     21 N          66.9495   92.4527    9.9899 N.ar    1  UNL1       -0.2045
     22 C          66.5917   93.4300   11.0701 C.ar    1  UNL1        0.1711
     23 H          67.7756   97.4431   10.2398 H       1  UNL1        0.1438
     24 H          68.4773   97.1117    8.7215 H       1  UNL1        0.1438
     25 N          62.1364   84.5700   11.9802 N.ar    1  UNL1       -0.2162
     26 N          62.0563   83.1761   11.4318 N.ar    1  UNL1       -0.1683
     27 C          62.6052   82.2388   12.4662 C.ar    1  UNL1        0.0810
     28 C          63.0245   83.0533   13.6539 C.ar    1  UNL1        0.0509
     29 C          62.7348   84.4941   13.3535 C.ar    1  UNL1        0.1380
     30 C          60.3729   89.5710    9.1731 C.3     1  UNL1        0.0310
     31 C          60.8137   88.3208    9.8749 C.ar    1  UNL1       -0.0218
     32 C          61.6531   87.3104    9.1506 C.ar    1  UNL1       -0.0027
     33 C          62.0941   86.0601    9.8524 C.ar    1  UNL1        0.0189
     34 C          61.6955   85.8202   11.2784 C.ar    1  UNL1        0.0842
     35 C          60.8561   86.8306   12.0027 C.ar    1  UNL1        0.0189
     36 C          60.4152   88.0809   11.3009 C.ar    1  UNL1       -0.0027
     37 C          62.7153   80.7485   12.3359 C.3     1  UNL1        0.0372
     38 C          63.0645   80.9013   10.8851 C.3     1  UNL1        0.0060
     39 C          62.3662   80.5957   13.7866 C.3     1  UNL1        0.0060
     40 C          62.8255   79.2583   12.2054 C.3     1  UNL1        0.0060
@<TRIPOS>BOND
     1    30    31    1
     2    31    32   ar
     3    32    33   ar
     4    33    34   ar
     5    34    25    1
     6    25    26   ar
     7    26    27   ar
     8    27    37    1
     9    37    38    1
    10    37    39    1
    11    37    40    1
    12    27    28   ar
    13    28    29   ar
    14    29     1    1
    15     1     2   am
    16     2     3    2
    17     2     4   am
    18     4     7    1
    19     7     8   ar
    20     8     9   ar
    21     9    10   ar
    22    10    13    1
    23    13    14   ar
    24    14    15   ar
    25    15    16   ar
    26    16    17   ar
    27    17    18    1
    28    17    19   ar
    29    19    20   ar
    30    20    21   ar
    31    21    22   ar
    32    10    11   ar
    33    11    12   ar
    34    34    35   ar
    35    35    36   ar
    36    36    31   ar
    37    29    25   ar
    38    12     7   ar
    39    22    13   ar
    40    22    16   ar
    41     1     5    1
    42     4     6    1
    43    18    23    1
    44    18    24    1
@<TRIPOS>MOLECULE
*****
 40 44 0 0 0
SMALL
GASTEIGER

@<TRIPOS>ATOM
      1 N          64.1595   93.0649   11.8185 N.am    1  UNL1       -0.2533
      2 C          64.3098   91.6076   12.1406 C.2     1  UNL1        0.3092
      3 O          65.5745   90.8863   11.7799 O.2     1  UNL1       -0.2521
      4 N          63.1953   90.8717   12.8234 N.am    1  UNL1       -0.2680
      5 H          63.3294   93.5383   12.0553 H       1  UNL1        0.1578
      6 H          62.3652   91.3451   13.0601 H       1  UNL1        0.1564
      7 C          63.3455   89.4144   13.1455 C.ar    1  UNL1        0.0517
      8 C          64.0172   88.9930   14.4188 C.ar    1  UNL1        0.0162
      9 C          64.1674   87.5358   14.7409 C.ar    1  UNL1        0.0189
     10 C          63.6459   86.4997   13.7896 C.ar    1  UNL1        0.0669
     11 C          62.9742   86.9211   12.5164 C.ar    1  UNL1        0.0189
     12 C          62.8240   88.3784   12.1943 C.ar    1  UNL1        0.0162
     13 N          63.7961   85.0424   14.1117 N.ar    1  UNL1       -0.2729
     14 C          64.2813   84.4722   15.4115 C.ar    1  UNL1        0.1840
     15 N          64.2726   82.9769   15.2936 N.ar    1  UNL1       -0.2192
     16 C          63.7819   82.6229   13.9210 C.ar    1  UNL1        0.1484
     17 C          63.5652   81.3032   13.2420 C.ar    1  UNL1        0.1480
     18 N          63.8597   80.0266   13.9724 N.pl3   1  UNL1       -0.3413
     19 N          63.0541   81.2600   11.8324 N.ar    1  UNL1       -0.2078
     20 C          62.7596   82.5366   11.1020 C.ar    1  UNL1        0.2015
     21 N          62.9763   83.8563   11.7810 N.ar    1  UNL1       -0.2045
     22 C          63.4874   83.8995   13.1906 C.ar    1  UNL1        0.1711
     23 H          64.1952   80.0549   14.8976 H       1  UNL1        0.1438
     24 H          63.7175   79.1603   13.5267 H       1  UNL1        0.1438
     25 N          66.6717   93.9633   11.6553 N.ar    1  UNL1       -0.2162
     26 N          67.4480   94.7664   10.6543 N.ar    1  UNL1       -0.1683
     27 C          66.5301   95.1005    9.5159 C.ar    1  UNL1        0.0810
     28 C          65.1865   94.5038    9.8135 C.ar    1  UNL1        0.0509
     29 C          65.2740   93.8009   11.1358 C.ar    1  UNL1        0.1380
     30 C          68.7860   91.7828   16.8298 C.3     1  UNL1        0.0310
     31 C          68.2575   92.3279   15.5362 C.ar    1  UNL1       -0.0218
     32 C          68.6308   91.6745   14.2387 C.ar    1  UNL1       -0.0027
     33 C          68.1022   92.2196   12.9450 C.ar    1  UNL1        0.0189
     34 C          67.2003   93.4182   12.9489 C.ar    1  UNL1        0.0842
     35 C          66.8269   94.0716   14.2466 C.ar    1  UNL1        0.0189
     36 C          67.3555   93.5265   15.5402 C.ar    1  UNL1       -0.0027
     37 C          66.8923   95.8923    8.2944 C.3     1  UNL1        0.0372
     38 C          65.7811   96.8556    8.5895 C.3     1  UNL1        0.0060
     39 C          68.0035   94.9288    7.9994 C.3     1  UNL1        0.0060
     40 C          67.2544   96.6841    7.0730 C.3     1  UNL1        0.0060
@<TRIPOS>BOND
     1    30    31    1
     2    31    32   ar
     3    32    33   ar
     4    33    34   ar
     5    34    25    1
     6    25    26   ar
     7    26    27   ar
     8    27    37    1
     9    37    38    1
    10    37    39    1
    11    37    40    1
    12    27    28   ar
    13    28    29   ar
    14    29     1    1
    15     1     2   am
    16     2     3    2
    17     2     4   am
    18     4     7    1
    19     7     8   ar
    20     8     9   ar
    21     9    10   ar
    22    10    13    1
    23    13    14   ar
    24    14    15   ar
    25    15    16   ar
    26    16    17   ar
    27    17    18    1
    28    17    19   ar
    29    19    20   ar
    30    20    21   ar
    31    21    22   ar
    32    10    11   ar
    33    11    12   ar
    34    34    35   ar
    35    35    36   ar
    36    36    31   ar
    37    29    25   ar
    38    12     7   ar
    39    22    13   ar
    40    22    16   ar
    41     1     5    1
    42     4     6    1
    43    18    23    1
    44    18    24    1
@<TRIPOS>MOLECULE
*****
 40 44 0 0 0
SMALL
GASTEIGER

@<TRIPOS>ATOM
      1 N          59.8824   89.1919    9.5083 N.am    1  UNL1       -0.2533
      2 C          60.1592   89.8299    8.1792 C.2     1  UNL1        0.3092
      3 O          61.5743   90.0396    7.7281 O.2     1  UNL1       -0.2521
      4 N          59.0209   90.2582    7.3014 N.am    1  UNL1       -0.2680
      5 H          58.9536   89.0543    9.8044 H       1  UNL1        0.1578
      6 H          58.0921   90.1206    7.5975 H       1  UNL1        0.1564
      7 C          59.2976   90.8962    5.9723 C.ar    1  UNL1        0.0517
      8 C          58.1891   91.5683    5.2177 C.ar    1  UNL1        0.0162
      9 C          58.4658   92.2063    3.8886 C.ar    1  UNL1        0.0189
     10 C          59.8511   92.1721    3.3141 C.ar    1  UNL1        0.0669
     11 C          60.9595   91.5000    4.0688 C.ar    1  UNL1        0.0189
     12 C          60.6828   90.8620    5.3978 C.ar    1  UNL1        0.0162
     13 N          60.1278   92.8101    1.9851 N.ar    1  UNL1       -0.2729
     14 C          59.0981   93.2573    0.9903 C.ar    1  UNL1        0.1840
     15 N          59.8168   93.8364   -0.1921 N.ar    1  UNL1       -0.2192
     16 C          61.2907   93.7472    0.0719 C.ar    1  UNL1        0.1484
     17 C          62.4825   94.1616   -0.7391 C.ar    1  UNL1        0.1480
     18 N          62.2902   94.7959   -2.0847 N.pl3   1  UNL1       -0.3413
     19 N          63.8666   93.9416   -0.2045 N.ar    1  UNL1       -0.2078
     20 C          64.0588   93.3073    1.1411 C.ar    1  UNL1        0.2015
     21 N          62.8670   92.8929    1.9521 N.ar    1  UNL1       -0.2045
     22 C          61.4829   93.1129    1.4175 C.ar    1  UNL1        0.1711
     23 H          61.3818   94.9403   -2.4356 H       1  UNL1        0.1438
     24 H          63.0725   95.0679   -2.6170 H       1  UNL1        0.1438
     25 N          61.9092   87.5762   10.1613 N.ar    1  UNL1       -0.2162
     26 N          62.9081   87.5262   11.2792 N.ar    1  UNL1       -0.1683
     27 C          62.6370   88.6828   12.1951 C.ar    1  UNL1        0.0810
     28 C          61.4706   89.4476   11.6432 C.ar    1  UNL1        0.0509
     29 C          61.0208   88.7636   10.3862 C.ar    1  UNL1        0.1380
     30 C          61.5334   83.7056    5.5922 C.3     1  UNL1        0.0310
     31 C          61.6274   84.6732    6.7344 C.ar    1  UNL1       -0.0218
     32 C          60.4099   85.4272    7.1807 C.ar    1  UNL1       -0.0027
     33 C          60.5038   86.3949    8.3230 C.ar    1  UNL1        0.0189
     34 C          61.8152   86.6085    9.0191 C.ar    1  UNL1        0.0842
     35 C          63.0328   85.8545    8.5728 C.ar    1  UNL1        0.0189
     36 C          62.9388   84.8868    7.4305 C.ar    1  UNL1       -0.0027
     37 C          63.3986   89.0161   13.4437 C.3     1  UNL1        0.0372
     38 C          63.0229   90.4598   13.2874 C.3     1  UNL1        0.0060
     39 C          63.7743   87.5724   13.5999 C.3     1  UNL1        0.0060
     40 C          64.1602   89.3495   14.6922 C.3     1  UNL1        0.0060
@<TRIPOS>BOND
     1    30    31    1
     2    31    32   ar
     3    32    33   ar
     4    33    34   ar
     5    34    25    1
     6    25    26   ar
     7    26    27   ar
     8    27    37    1
     9    37    38    1
    10    37    39    1
    11    37    40    1
    12    27    28   ar
    13    28    29   ar
    14    29     1    1
    15     1     2   am
    16     2     3    2
    17     2     4   am
    18     4     7    1
    19     7     8   ar
    20     8     9   ar
    21     9    10   ar
    22    10    13    1
    23    13    14   ar
    24    14    15   ar
    25    15    16   ar
    26    16    17   ar
    27    17    18    1
    28    17    19   ar
    29    19    20   ar
    30    20    21   ar
    31    21    22   ar
    32    10    11   ar
    33    11    12   ar
    34    34    35   ar
    35    35    36   ar
    36    36    31   ar
    37    29    25   ar
    38    12     7   ar
    39    22    13   ar
    40    22    16   ar
    41     1     5    1
    42     4     6    1
    43    18    23    1
    44    18    24    1
