@<TRIPOS>MOLECULE
*****
 28 31 0 0 0
SMALL
GASTEIGER

@<TRIPOS>ATOM
      1 C          64.3337   90.7399   14.8982 C.2     1  UNL1       -0.0021
      2 C          63.8124   91.5276   16.0634 C.2     1  UNL1        0.0942
      3 N          63.2382   90.5612   17.0565 N.2     1  UNL1       -0.2482
      4 C          63.4045   89.1762   16.5050 C.2     1  UNL1        0.0633
      5 C          63.0268   87.8287   17.0452 C.3     1  UNL1        0.0753
      6 C          63.3263   86.5918   16.2514 C.2     1  UNL1        0.0203
      7 C          64.0034   86.7022   14.9175 C.2     1  UNL1        0.1317
      8 C          64.3810   88.0496   14.3773 C.2     1  UNL1        0.0407
      9 C          64.0816   89.2866   15.1711 C.2     1  UNL1        0.0148
     10 C          66.3073   92.4382   11.2279 C.3     1  UNL1        0.0540
     11 C          67.0860   92.3004   12.5025 C.3     1  UNL1        0.0160
     12 C          66.4281   91.7343   13.7259 C.3     1  UNL1        0.0058
     13 C          64.9916   91.3060   13.6748 C.3     1  UNL1        0.0240
     14 C          64.2128   91.4438   12.4001 C.3     1  UNL1        0.0058
     15 C          64.8707   92.0099   11.1767 C.3     1  UNL1        0.0160
     16 C          68.2635   92.4317    9.5181 C.3     1  UNL1        0.0858
     17 N          66.9652   93.0043   10.0045 N.3     1  UNL1       -0.2974
     18 H          66.2967   92.9093    9.2400 H       1  UNL1        0.1232
     19 N          64.3029   85.4651   14.1237 N.pl3   1  UNL1       -0.1992
     20 H          65.1781   85.0231   14.2125 H       1  UNL1        0.2985
     21 C          63.2689   84.9016   13.1946 C.2     1  UNL1        0.3224
     22 N          62.6242   85.7832   12.1664 N.2     1  UNL1       -0.0985
     23 H          62.8797   86.7317   12.1014 H       1  UNL1        0.3633
     24 C          62.8796   83.4563   13.2936 C.ar    1  UNL1        0.1114
     25 C          62.9251   82.4527   12.1798 C.ar    1  UNL1        0.0144
     26 C          62.4500   81.1370   12.7216 C.ar    1  UNL1        0.0077
     27 C          62.1110   81.3277   14.1704 C.ar    1  UNL1        0.0357
     28 S          62.3764   82.7610   14.5238 S.2     1  UNL1       -0.0792
@<TRIPOS>BOND
     1    16    17    1
     2    10    17    1
     3    10    11    1
     4    11    12    1
     5    12    13    1
     6    13     1    1
     7     1     2    2
     8     2     3    1
     9     3     4    2
    10     4     5    1
    11     5     6    1
    12     6     7    2
    13     7    19    1
    14    19    21    1
    15    21    22    2
    16    21    24    1
    17    24    25   ar
    18    25    26   ar
    19    26    27   ar
    20    27    28   ar
    21     7     8    1
    22     8     9    2
    23    13    14    1
    24    14    15    1
    25    15    10    1
    26     9     1    1
    27     9     4    1
    28    28    24   ar
    29    17    18    1
    30    19    20    1
    31    22    23    1
@<TRIPOS>MOLECULE
*****
 28 31 0 0 0
SMALL
GASTEIGER

@<TRIPOS>ATOM
      1 C          62.8102   90.1274   11.5392 C.2     1  UNL1       -0.0021
      2 C          61.8007   90.7338   10.6102 C.2     1  UNL1        0.0942
      3 N          60.9440   89.6272   10.0704 N.2     1  UNL1       -0.2482
      4 C          61.4241   88.3368   10.6657 C.2     1  UNL1        0.0633
      5 C          60.9601   86.9202   10.4985 C.3     1  UNL1        0.0753
      6 C          61.6494   85.8129   11.2391 C.2     1  UNL1        0.0203
      7 C          62.8028   86.1220   12.1469 C.2     1  UNL1        0.1317
      8 C          63.2669   87.5386   12.3141 C.2     1  UNL1        0.0407
      9 C          62.5775   88.6459   11.5735 C.2     1  UNL1        0.0148
     10 C          65.9806   92.3604   13.8224 C.3     1  UNL1        0.0540
     11 C          65.1785   91.2914   14.5034 C.3     1  UNL1        0.0160
     12 C          64.1217   90.5471   13.7423 C.3     1  UNL1        0.0058
     13 C          63.8670   90.8717   12.3003 C.3     1  UNL1        0.0240
     14 C          64.6691   91.9408   11.6192 C.3     1  UNL1        0.0058
     15 C          65.7259   92.6851   12.3803 C.3     1  UNL1        0.0160
     16 C          67.1666   92.9168   16.0660 C.3     1  UNL1        0.0858
     17 N          67.0374   93.1047   14.5834 N.3     1  UNL1       -0.2974
     18 H          67.9343   92.8432   14.1742 H       1  UNL1        0.1232
     19 N          63.4922   85.0146   12.8875 N.pl3   1  UNL1       -0.1992
     20 H          64.4656   84.8956   12.8005 H       1  UNL1        0.2985
     21 C          62.6984   84.0884   13.7605 C.2     1  UNL1        0.3224
     22 N          62.0302   84.6121   14.9971 N.2     1  UNL1       -0.0985
     23 H          62.1126   85.5637   15.2358 H       1  UNL1        0.3633
     24 C          62.5728   82.6385   13.3969 C.ar    1  UNL1        0.1114
     25 C          63.0711   81.9999   12.1344 C.ar    1  UNL1        0.0144
     26 C          62.7332   80.5394   12.1891 C.ar    1  UNL1        0.0077
     27 C          62.0260   80.2756   13.4854 C.ar    1  UNL1        0.0357
     28 S          61.9269   81.5729   14.2318 S.2     1  UNL1       -0.0792
@<TRIPOS>BOND
     1    16    17    1
     2    10    17    1
     3    10    11    1
     4    11    12    1
     5    12    13    1
     6    13     1    1
     7     1     2    2
     8     2     3    1
     9     3     4    2
    10     4     5    1
    11     5     6    1
    12     6     7    2
    13     7    19    1
    14    19    21    1
    15    21    22    2
    16    21    24    1
    17    24    25   ar
    18    25    26   ar
    19    26    27   ar
    20    27    28   ar
    21     7     8    1
    22     8     9    2
    23    13    14    1
    24    14    15    1
    25    15    10    1
    26     9     1    1
    27     9     4    1
    28    28    24   ar
    29    17    18    1
    30    19    20    1
    31    22    23    1
@<TRIPOS>MOLECULE
*****
 28 31 0 0 0
SMALL
GASTEIGER

@<TRIPOS>ATOM
      1 C          62.1217   86.6036   11.2677 C.2     1  UNL1       -0.0021
      2 C          62.3450   85.1528   11.5768 C.2     1  UNL1        0.0942
      3 N          63.2252   85.0673   12.7884 N.2     1  UNL1       -0.2482
      4 C          63.5459   86.4650   13.2281 C.2     1  UNL1        0.0633
      5 C          64.3708   86.9959   14.3628 C.3     1  UNL1        0.0753
      6 C          64.5137   88.4763   14.5577 C.2     1  UNL1        0.0203
      7 C          63.8317   89.4258   13.6178 C.2     1  UNL1        0.1317
      8 C          63.0068   88.8949   12.4831 C.2     1  UNL1        0.0407
      9 C          62.8639   87.4146   12.2882 C.2     1  UNL1        0.0148
     10 C          59.6579   88.2363    7.8744 C.3     1  UNL1        0.0540
     11 C          59.9697   86.7705    7.9374 C.3     1  UNL1        0.0160
     12 C          60.7910   86.2262    9.0685 C.3     1  UNL1        0.0058
     13 C          61.3005   87.1478   10.1366 C.3     1  UNL1        0.0240
     14 C          60.9887   88.6138   10.0737 C.3     1  UNL1        0.0058
     15 C          60.1674   89.1580    8.9426 C.3     1  UNL1        0.0160
     16 C          59.3266   89.9638    5.9624 C.3     1  UNL1        0.0858
     17 N          58.8367   88.7806    6.7434 N.3     1  UNL1       -0.2974
     18 H          58.7123   88.0187    6.0766 H       1  UNL1        0.1232
     19 N          63.9747   90.9062   13.8128 N.pl3   1  UNL1       -0.1992
     20 H          63.6991   91.5256   13.0988 H       1  UNL1        0.2985
     21 C          64.5375   91.4429   15.0954 C.2     1  UNL1        0.3224
     22 N          63.6835   91.4898   16.3276 N.2     1  UNL1       -0.0985
     23 H          62.7536   91.1683   16.2946 H       1  UNL1        0.3633
     24 C          65.9545   91.9328   15.1457 C.ar    1  UNL1        0.1114
     25 C          66.5935   92.6665   16.2874 C.ar    1  UNL1        0.0144
     26 C          68.0151   92.9622   15.9106 C.ar    1  UNL1        0.0077
     27 C          68.2545   92.4112   14.5361 C.ar    1  UNL1        0.0357
     28 S          66.9809   91.7750   14.0634 S.2     1  UNL1       -0.0792
@<TRIPOS>BOND
     1    16    17    1
     2    10    17    1
     3    10    11    1
     4    11    12    1
     5    12    13    1
     6    13     1    1
     7     1     2    2
     8     2     3    1
     9     3     4    2
    10     4     5    1
    11     5     6    1
    12     6     7    2
    13     7    19    1
    14    19    21    1
    15    21    22    2
    16    21    24    1
    17    24    25   ar
    18    25    26   ar
    19    26    27   ar
    20    27    28   ar
    21     7     8    1
    22     8     9    2
    23    13    14    1
    24    14    15    1
    25    15    10    1
    26     9     1    1
    27     9     4    1
    28    28    24   ar
    29    17    18    1
    30    19    20    1
    31    22    23    1
@<TRIPOS>MOLECULE
*****
 28 31 0 0 0
SMALL
GASTEIGER

@<TRIPOS>ATOM
      1 C          61.5624   86.4881    9.9906 C.2     1  UNL1       -0.0021
      2 C          60.5270   86.3629    8.9125 C.2     1  UNL1        0.0942
      3 N          59.9499   87.7249    8.6638 N.2     1  UNL1       -0.2482
      4 C          60.6287   88.6918    9.5881 C.2     1  UNL1        0.0633
      5 C          60.4680   90.1696    9.7890 C.3     1  UNL1        0.0753
      6 C          61.3039   90.8829   10.8100 C.2     1  UNL1        0.0203
      7 C          62.3005   90.1184   11.6300 C.2     1  UNL1        0.1317
      8 C          62.4611   88.6407   11.4291 C.2     1  UNL1        0.0407
      9 C          61.6252   87.9274   10.4082 C.2     1  UNL1        0.0148
     10 C          64.0445   83.1342   11.6763 C.3     1  UNL1        0.0540
     11 C          63.2238   83.9934   12.5918 C.3     1  UNL1        0.0160
     12 C          62.3965   85.1113   12.0299 C.3     1  UNL1        0.0058
     13 C          62.3898   85.3701   10.5525 C.3     1  UNL1        0.0240
     14 C          63.2105   84.5109    9.6369 C.3     1  UNL1        0.0058
     15 C          64.0378   83.3930   10.1988 C.3     1  UNL1        0.0160
     16 C          64.3315   81.1702   13.3527 C.3     1  UNL1        0.0858
     17 N          64.8719   82.0163   12.2382 N.3     1  UNL1       -0.2974
     18 H          65.0795   81.3857   11.4639 H       1  UNL1        0.1232
     19 N          63.1364   90.8318   12.6510 N.pl3   1  UNL1       -0.1992
     20 H          62.8832   90.8026   13.6020 H       1  UNL1        0.2985
     21 C          64.3581   91.5897   12.2232 C.2     1  UNL1        0.3224
     22 N          64.5400   91.9679   10.7831 N.2     1  UNL1       -0.0985
     23 H          63.8575   91.7187   10.1187 H       1  UNL1        0.3633
     24 C          65.3980   91.9694   13.2354 C.ar    1  UNL1        0.1114
     25 C          65.7313   91.2089   14.4847 C.ar    1  UNL1        0.0144
     26 C          66.8264   91.9457   15.1975 C.ar    1  UNL1        0.0077
     27 C          67.1698   93.1615   14.3887 C.ar    1  UNL1        0.0357
     28 S          66.2869   93.1761   13.1761 S.2     1  UNL1       -0.0792
@<TRIPOS>BOND
     1    16    17    1
     2    10    17    1
     3    10    11    1
     4    11    12    1
     5    12    13    1
     6    13     1    1
     7     1     2    2
     8     2     3    1
     9     3     4    2
    10     4     5    1
    11     5     6    1
    12     6     7    2
    13     7    19    1
    14    19    21    1
    15    21    22    2
    16    21    24    1
    17    24    25   ar
    18    25    26   ar
    19    26    27   ar
    20    27    28   ar
    21     7     8    1
    22     8     9    2
    23    13    14    1
    24    14    15    1
    25    15    10    1
    26     9     1    1
    27     9     4    1
    28    28    24   ar
    29    17    18    1
    30    19    20    1
    31    22    23    1
@<TRIPOS>MOLECULE
*****
 28 31 0 0 0
SMALL
GASTEIGER

@<TRIPOS>ATOM
      1 C          62.3453   86.7783   10.8602 C.2     1  UNL1       -0.0021
      2 C          61.5997   87.2299    9.6395 C.2     1  UNL1        0.0942
      3 N          61.5622   88.7294    9.6477 N.2     1  UNL1       -0.2482
      4 C          62.2845   89.2045   10.8734 C.2     1  UNL1        0.0633
      5 C          62.5640   90.5794   11.4040 C.3     1  UNL1        0.0753
      6 C          63.3276   90.7484   12.6840 C.2     1  UNL1        0.0203
      7 C          63.8116   89.5425   13.4334 C.2     1  UNL1        0.1317
      8 C          63.5320   88.1676   12.9028 C.2     1  UNL1        0.0407
      9 C          62.7685   87.9986   11.6228 C.2     1  UNL1        0.0148
     10 C          63.1679   82.5114   12.0294 C.3     1  UNL1        0.0540
     11 C          63.4702   82.9790   10.6366 C.3     1  UNL1        0.0160
     12 C          63.1960   84.4013   10.2469 C.3     1  UNL1        0.0058
     13 C          62.6195   85.3560   11.2499 C.3     1  UNL1        0.0240
     14 C          62.3172   84.8883   12.6428 C.3     1  UNL1        0.0058
     15 C          62.5914   83.4660   13.0325 C.3     1  UNL1        0.0160
     16 C          62.5709   80.4077   13.4323 C.3     1  UNL1        0.0858
     17 N          63.4421   81.0890   12.4191 N.3     1  UNL1       -0.2974
     18 H          63.3894   80.5343   11.5648 H       1  UNL1        0.1232
     19 N          64.5752   89.7115   14.7134 N.pl3   1  UNL1       -0.1992
     20 H          65.0004   88.9325   15.1395 H       1  UNL1        0.2985
     21 C          64.6908   91.0674   15.3443 C.2     1  UNL1        0.3224
     22 N          63.5364   91.6376   16.1139 N.2     1  UNL1       -0.0985
     23 H          62.7028   91.1218   16.2049 H       1  UNL1        0.3633
     24 C          65.9610   91.8533   15.2056 C.ar    1  UNL1        0.1114
     25 C          66.5701   92.7366   16.2538 C.ar    1  UNL1        0.0144
     26 C          67.8306   93.3231   15.6904 C.ar    1  UNL1        0.0077
     27 C          68.0004   92.8022   14.2940 C.ar    1  UNL1        0.0357
     28 S          66.8449   91.8938   13.9944 S.2     1  UNL1       -0.0792
@<TRIPOS>BOND
     1    16    17    1
     2    10    17    1
     3    10    11    1
     4    11    12    1
     5    12    13    1
     6    13     1    1
     7     1     2    2
     8     2     3    1
     9     3     4    2
    10     4     5    1
    11     5     6    1
    12     6     7    2
    13     7    19    1
    14    19    21    1
    15    21    22    2
    16    21    24    1
    17    24    25   ar
    18    25    26   ar
    19    26    27   ar
    20    27    28   ar
    21     7     8    1
    22     8     9    2
    23    13    14    1
    24    14    15    1
    25    15    10    1
    26     9     1    1
    27     9     4    1
    28    28    24   ar
    29    17    18    1
    30    19    20    1
    31    22    23    1
@<TRIPOS>MOLECULE
*****
 28 31 0 0 0
SMALL
GASTEIGER

@<TRIPOS>ATOM
      1 C          62.5268   88.8796   10.7290 C.2     1  UNL1       -0.0021
      2 C          62.5955   90.3670   10.5475 C.2     1  UNL1        0.0942
      3 N          63.2062   90.9571   11.7839 N.2     1  UNL1       -0.2482
      4 C          63.5149   89.8344   12.7296 C.2     1  UNL1        0.0633
      5 C          64.1241   89.8154   14.1002 C.3     1  UNL1        0.0753
      6 C          64.3134   88.5124   14.8188 C.2     1  UNL1        0.0203
      7 C          63.8935   87.2285   14.1668 C.2     1  UNL1        0.1317
      8 C          63.2843   87.2475   12.7962 C.2     1  UNL1        0.0407
      9 C          63.0950   88.5504   12.0777 C.2     1  UNL1        0.0148
     10 C          60.9013   85.9237    7.7506 C.3     1  UNL1        0.0540
     11 C          60.0802   87.1133    8.1513 C.3     1  UNL1        0.0160
     12 C          60.6221   88.0986    9.1441 C.3     1  UNL1        0.0058
     13 C          61.9849   87.8943    9.7362 C.3     1  UNL1        0.0240
     14 C          62.8061   86.7046    9.3356 C.3     1  UNL1        0.0058
     15 C          62.2643   85.7193    8.3428 C.3     1  UNL1        0.0160
     16 C          61.2996   84.1374    5.9065 C.3     1  UNL1        0.0858
     17 N          60.3595   84.9384    6.7578 N.3     1  UNL1       -0.2974
     18 H          59.7963   84.2700    7.2837 H       1  UNL1        0.1232
     19 N          64.0828   85.9254   14.8854 N.pl3   1  UNL1       -0.1992
     20 H          63.6684   85.7850   15.7673 H       1  UNL1        0.2985
     21 C          64.9034   84.8365   14.2603 C.2     1  UNL1        0.3224
     22 N          66.3954   84.8391   14.4149 N.2     1  UNL1       -0.0985
     23 H          66.8361   85.5555   14.9266 H       1  UNL1        0.3633
     24 C          64.2320   83.7449   13.4807 C.ar    1  UNL1        0.1114
     25 C          64.1511   83.6510   11.9858 C.ar    1  UNL1        0.0144
     26 C          63.3928   82.4037   11.6402 C.ar    1  UNL1        0.0077
     27 C          63.0051   81.7269   12.9216 C.ar    1  UNL1        0.0357
     28 S          63.5239   82.5558   14.0590 S.2     1  UNL1       -0.0792
@<TRIPOS>BOND
     1    16    17    1
     2    10    17    1
     3    10    11    1
     4    11    12    1
     5    12    13    1
     6    13     1    1
     7     1     2    2
     8     2     3    1
     9     3     4    2
    10     4     5    1
    11     5     6    1
    12     6     7    2
    13     7    19    1
    14    19    21    1
    15    21    22    2
    16    21    24    1
    17    24    25   ar
    18    25    26   ar
    19    26    27   ar
    20    27    28   ar
    21     7     8    1
    22     8     9    2
    23    13    14    1
    24    14    15    1
    25    15    10    1
    26     9     1    1
    27     9     4    1
    28    28    24   ar
    29    17    18    1
    30    19    20    1
    31    22    23    1
@<TRIPOS>MOLECULE
*****
 28 31 0 0 0
SMALL
GASTEIGER

@<TRIPOS>ATOM
      1 C          62.0186   86.5459   10.5656 C.2     1  UNL1       -0.0021
      2 C          61.0843   86.6826    9.4001 C.2     1  UNL1        0.0942
      3 N          60.8553   88.1452    9.1588 N.2     1  UNL1       -0.2482
      4 C          61.6480   88.9125   10.1751 C.2     1  UNL1        0.0633
      5 C          61.8079   90.3835   10.4211 C.3     1  UNL1        0.0753
      6 C          62.6869   90.8660   11.5367 C.2     1  UNL1        0.0203
      7 C          63.4059   89.8776   12.4062 C.2     1  UNL1        0.1317
      8 C          63.2460   88.4066   12.1602 C.2     1  UNL1        0.0407
      9 C          62.3670   87.9241   11.0446 C.2     1  UNL1        0.0148
     10 C          63.5140   82.6802   12.3179 C.3     1  UNL1        0.0540
     11 C          63.6914   82.9587   10.8547 C.3     1  UNL1        0.0160
     12 C          63.1930   84.2473   10.2707 C.3     1  UNL1        0.0058
     13 C          62.5171   85.2573   11.1497 C.3     1  UNL1        0.0240
     14 C          62.3396   84.9788   12.6130 C.3     1  UNL1        0.0058
     15 C          62.8381   83.6903   13.1970 C.3     1  UNL1        0.0160
     16 C          63.0661   80.4808   13.6264 C.3     1  UNL1        0.0858
     17 N          64.0124   81.3916   12.9020 N.3     1  UNL1       -0.2974
     18 H          64.4080   80.8527   12.1316 H       1  UNL1        0.1232
     19 N          64.2850   90.3602   13.5218 N.pl3   1  UNL1       -0.1992
     20 H          65.1432   90.7975   13.3182 H       1  UNL1        0.2985
     21 C          63.8563   90.1767   14.9474 C.2     1  UNL1        0.3224
     22 N          63.5476   91.3732   15.7978 N.2     1  UNL1       -0.0985
     23 H          63.6264   92.2790   15.4202 H       1  UNL1        0.3633
     24 C          63.7363   88.7966   15.5228 C.ar    1  UNL1        0.1114
     25 C          64.3464   87.5490   14.9559 C.ar    1  UNL1        0.0144
     26 C          63.9723   86.4031   15.8488 C.ar    1  UNL1        0.0077
     27 C          63.1309   86.9426   16.9674 C.ar    1  UNL1        0.0357
     28 S          62.9851   88.4218   16.7659 S.2     1  UNL1       -0.0792
@<TRIPOS>BOND
     1    16    17    1
     2    10    17    1
     3    10    11    1
     4    11    12    1
     5    12    13    1
     6    13     1    1
     7     1     2    2
     8     2     3    1
     9     3     4    2
    10     4     5    1
    11     5     6    1
    12     6     7    2
    13     7    19    1
    14    19    21    1
    15    21    22    2
    16    21    24    1
    17    24    25   ar
    18    25    26   ar
    19    26    27   ar
    20    27    28   ar
    21     7     8    1
    22     8     9    2
    23    13    14    1
    24    14    15    1
    25    15    10    1
    26     9     1    1
    27     9     4    1
    28    28    24   ar
    29    17    18    1
    30    19    20    1
    31    22    23    1
@<TRIPOS>MOLECULE
*****
 28 31 0 0 0
SMALL
GASTEIGER

@<TRIPOS>ATOM
      1 C          63.8899   86.9677   13.7332 C.2     1  UNL1       -0.0021
      2 C          64.4955   87.3814   15.0417 C.2     1  UNL1        0.0942
      3 N          64.5406   88.8803   15.0783 N.2     1  UNL1       -0.2482
      4 C          63.9630   89.3930   13.7924 C.2     1  UNL1        0.0633
      5 C          63.7512   90.7834   13.2711 C.3     1  UNL1        0.0753
      6 C          63.1373   90.9918   11.9184 C.2     1  UNL1        0.0203
      7 C          62.7352   89.8097   11.0871 C.2     1  UNL1        0.1317
      8 C          62.9469   88.4193   11.6085 C.2     1  UNL1        0.0407
      9 C          63.5608   88.2109   12.9611 C.2     1  UNL1        0.0148
     10 C          63.1844   82.7394   12.3644 C.3     1  UNL1        0.0540
     11 C          62.4978   83.8773   11.6689 C.3     1  UNL1        0.0160
     12 C          62.7330   85.2867   12.1252 C.3     1  UNL1        0.0058
     13 C          63.6547   85.5583   13.2769 C.3     1  UNL1        0.0240
     14 C          64.3414   84.4203   13.9724 C.3     1  UNL1        0.0058
     15 C          64.1062   83.0109   13.5161 C.3     1  UNL1        0.0160
     16 C          62.4958   80.2898   12.8892 C.3     1  UNL1        0.0858
     17 N          62.9492   81.3299   11.9081 N.3     1  UNL1       -0.2974
     18 H          62.2410   81.3720   11.1752 H       1  UNL1        0.1232
     19 N          62.1212   90.0182    9.7344 N.pl3   1  UNL1       -0.1992
     20 H          62.6597   90.3972    9.0026 H       1  UNL1        0.2985
     21 C          60.6869   89.6493    9.4969 C.2     1  UNL1        0.3224
     22 N          59.5922   90.5827    9.9214 N.2     1  UNL1       -0.0985
     23 H          59.8151   91.4375   10.3560 H       1  UNL1        0.3633
     24 C          60.3472   88.3468    8.8348 C.ar    1  UNL1        0.1114
     25 C          61.0861   87.0525    9.0044 C.ar    1  UNL1        0.0144
     26 C          60.4046   86.0158    8.1612 C.ar    1  UNL1        0.0077
     27 C          59.2445   86.6695    7.4706 C.ar    1  UNL1        0.0357
     28 S          59.2090   88.1101    7.8869 S.2     1  UNL1       -0.0792
@<TRIPOS>BOND
     1    16    17    1
     2    10    17    1
     3    10    11    1
     4    11    12    1
     5    12    13    1
     6    13     1    1
     7     1     2    2
     8     2     3    1
     9     3     4    2
    10     4     5    1
    11     5     6    1
    12     6     7    2
    13     7    19    1
    14    19    21    1
    15    21    22    2
    16    21    24    1
    17    24    25   ar
    18    25    26   ar
    19    26    27   ar
    20    27    28   ar
    21     7     8    1
    22     8     9    2
    23    13    14    1
    24    14    15    1
    25    15    10    1
    26     9     1    1
    27     9     4    1
    28    28    24   ar
    29    17    18    1
    30    19    20    1
    31    22    23    1
@<TRIPOS>MOLECULE
*****
 28 31 0 0 0
SMALL
GASTEIGER

@<TRIPOS>ATOM
      1 C          64.0433   84.3903   13.6197 C.2     1  UNL1       -0.0021
      2 C          64.6577   84.2543   14.9813 C.2     1  UNL1        0.0942
      3 N          64.7949   85.6283   15.5672 N.2     1  UNL1       -0.2482
      4 C          64.2653   86.6135   14.5677 C.2     1  UNL1        0.0633
      5 C          64.1460   88.1084   14.5981 C.3     1  UNL1        0.0753
      6 C          63.5622   88.8382   13.4248 C.2     1  UNL1        0.0203
      7 C          63.0977   88.0730   12.2212 C.2     1  UNL1        0.1317
      8 C          63.2170   86.5781   12.1908 C.2     1  UNL1        0.0407
      9 C          63.8007   85.8484   13.3640 C.2     1  UNL1        0.0148
     10 C          63.0941   81.0165   10.7971 C.3     1  UNL1        0.0540
     11 C          63.8908   82.1936   10.3180 C.3     1  UNL1        0.0160
     12 C          64.2072   83.3182   11.2588 C.3     1  UNL1        0.0058
     13 C          63.7269   83.2657   12.6788 C.3     1  UNL1        0.0240
     14 C          62.9300   82.0886   13.1580 C.3     1  UNL1        0.0058
     15 C          62.6137   80.9640   12.2171 C.3     1  UNL1        0.0160
     16 C          62.7544   78.4784   10.3578 C.3     1  UNL1        0.0858
     17 N          62.7777   79.8919    9.8563 N.3     1  UNL1       -0.2974
     18 H          61.8531   80.0825    9.4699 H       1  UNL1        0.1232
     19 N          62.5139   88.8029   11.0479 N.pl3   1  UNL1       -0.1992
     20 H          63.0365   89.5030   10.5940 H       1  UNL1        0.2985
     21 C          61.1339   88.4661   10.5662 C.2     1  UNL1        0.3224
     22 N          59.9400   89.1278   11.1881 N.2     1  UNL1       -0.0985
     23 H          60.0622   89.7832   11.9125 H       1  UNL1        0.3633
     24 C          60.9477   87.4675    9.4624 C.ar    1  UNL1        0.1114
     25 C          61.9890   86.5188    8.9470 C.ar    1  UNL1        0.0144
     26 C          61.3724   85.7072    7.8464 C.ar    1  UNL1        0.0077
     27 C          59.9500   86.1544    7.6817 C.ar    1  UNL1        0.0357
     28 S          59.6876   87.2423    8.6805 S.2     1  UNL1       -0.0792
@<TRIPOS>BOND
     1    16    17    1
     2    10    17    1
     3    10    11    1
     4    11    12    1
     5    12    13    1
     6    13     1    1
     7     1     2    2
     8     2     3    1
     9     3     4    2
    10     4     5    1
    11     5     6    1
    12     6     7    2
    13     7    19    1
    14    19    21    1
    15    21    22    2
    16    21    24    1
    17    24    25   ar
    18    25    26   ar
    19    26    27   ar
    20    27    28   ar
    21     7     8    1
    22     8     9    2
    23    13    14    1
    24    14    15    1
    25    15    10    1
    26     9     1    1
    27     9     4    1
    28    28    24   ar
    29    17    18    1
    30    19    20    1
    31    22    23    1
