@<TRIPOS>MOLECULE
*****
 20 21 0 0 0
SMALL
GASTEIGER

@<TRIPOS>ATOM
      1 C          65.5736   92.2307   12.6828 C.ar    1  UNL1        0.1418
      2 C          65.0204   92.2567   11.2888 C.ar    1  UNL1        0.0372
      3 C          63.8671   91.3701   10.9229 C.ar    1  UNL1        0.0093
      4 C          63.2670   90.4575   11.9510 C.ar    1  UNL1        0.0731
      5 C          63.8202   90.4315   13.3450 C.ar    1  UNL1        0.1448
      6 C          64.9735   91.3181   13.7109 C.ar    1  UNL1        0.0739
      7 C          66.9856   93.4561   14.4868 C.3     1  UNL1        0.2525
      8 O          66.7269   93.1172   13.0487 O.3     1  UNL1       -0.4713
      9 C          62.1137   89.5710   11.5851 C.2     1  UNL1        0.1986
     10 O          60.8504   89.6120   12.3929 O.2     1  UNL1       -0.2865
     11 C          62.2236   88.6434   10.4115 C.2     1  UNL1        0.0422
     12 C          61.2410   87.5220   10.2472 C.2     1  UNL1        0.0048
     13 C          61.3509   86.5944    9.0735 C.ar    1  UNL1        0.0193
     14 C          62.6547   85.9161    8.7731 C.ar    1  UNL1        0.0031
     15 C          62.7646   84.9885    7.5994 C.ar    1  UNL1        0.0207
     16 C          61.5708   84.7392    6.7261 C.ar    1  UNL1        0.0989
     17 N          60.2671   85.4175    7.0265 N.ar    1  UNL1       -0.2423
     18 C          60.1571   86.3451    8.2002 C.ar    1  UNL1        0.0988
     19 O          63.2201   89.5189   14.3732 O.3     1  UNL1       -0.4712
     20 C          63.4495   89.7794   15.8324 C.3     1  UNL1        0.2525
@<TRIPOS>BOND
     1     7     8    1
     2     8     1    1
     3     1     2   ar
     4     2     3   ar
     5     3     4   ar
     6     4     9    1
     7     9    10    2
     8     9    11    1
     9    11    12    2
    10    12    13    1
    11    13    14   ar
    12    14    15   ar
    13    15    16   ar
    14    16    17   ar
    15    17    18   ar
    16     4     5   ar
    17     5    19    1
    18    19    20    1
    19     5     6   ar
    20     6     1   ar
    21    18    13   ar
@<TRIPOS>MOLECULE
*****
 20 21 0 0 0
SMALL
GASTEIGER

@<TRIPOS>ATOM
      1 C          60.3852   86.2466    8.0711 C.ar    1  UNL1        0.1418
      2 C          59.8392   87.6285    7.8657 C.ar    1  UNL1        0.0372
      3 C          59.8778   88.6245    8.9867 C.ar    1  UNL1        0.0093
      4 C          60.4625   88.2386   10.3130 C.ar    1  UNL1        0.0731
      5 C          61.0086   86.8568   10.5184 C.ar    1  UNL1        0.1448
      6 C          60.9699   85.8608    9.3975 C.ar    1  UNL1        0.0739
      7 C          61.6213   84.6492    6.4370 C.3     1  UNL1        0.2525
      8 O          60.3466   85.2506    6.9502 O.3     1  UNL1       -0.4713
      9 C          60.5011   89.2346   11.4339 C.2     1  UNL1        0.1986
     10 O          59.5058   89.1440   12.5524 O.2     1  UNL1       -0.2865
     11 C          61.5351   90.3213   11.4364 C.2     1  UNL1        0.0422
     12 C          62.8897   90.0663   12.0280 C.2     1  UNL1        0.0048
     13 C          63.9237   91.1530   12.0304 C.ar    1  UNL1        0.0193
     14 C          64.2868   91.8457   10.7505 C.ar    1  UNL1        0.0031
     15 C          65.3208   92.9324   10.7529 C.ar    1  UNL1        0.0207
     16 C          65.9917   93.3264   12.0354 C.ar    1  UNL1        0.0989
     17 N          65.6285   92.6337   13.3154 N.ar    1  UNL1       -0.2423
     18 C          64.5946   91.5470   13.3129 C.ar    1  UNL1        0.0988
     19 O          61.5933   86.4708   11.8448 O.3     1  UNL1       -0.4712
     20 C          62.4655   85.2555   11.9548 C.3     1  UNL1        0.2525
@<TRIPOS>BOND
     1     7     8    1
     2     8     1    1
     3     1     2   ar
     4     2     3   ar
     5     3     4   ar
     6     4     9    1
     7     9    10    2
     8     9    11    1
     9    11    12    2
    10    12    13    1
    11    13    14   ar
    12    14    15   ar
    13    15    16   ar
    14    16    17   ar
    15    17    18   ar
    16     4     5   ar
    17     5    19    1
    18    19    20    1
    19     5     6   ar
    20     6     1   ar
    21    18    13   ar
@<TRIPOS>MOLECULE
*****
 20 21 0 0 0
SMALL
GASTEIGER

@<TRIPOS>ATOM
      1 C          66.4755   93.2464   11.3599 C.ar    1  UNL1        0.1418
      2 C          65.1792   92.6991   10.8403 C.ar    1  UNL1        0.0372
      3 C          64.3596   91.7760   11.6924 C.ar    1  UNL1        0.0093
      4 C          64.8362   91.4002   13.0641 C.ar    1  UNL1        0.0731
      5 C          66.1325   91.9475   13.5836 C.ar    1  UNL1        0.1448
      6 C          66.9522   92.8706   12.7315 C.ar    1  UNL1        0.0739
      7 C          67.9877   93.6447    9.2851 C.3     1  UNL1        0.2525
      8 O          67.2952   94.1695   10.5078 O.3     1  UNL1       -0.4713
      9 C          64.0166   90.4771   13.9161 C.2     1  UNL1        0.1986
     10 O          63.3264   91.0013   15.1404 O.2     1  UNL1       -0.2865
     11 C          63.8870   89.0299   13.5440 C.2     1  UNL1        0.0422
     12 C          64.2985   87.9654   14.5174 C.2     1  UNL1        0.0048
     13 C          64.1689   86.5180   14.1451 C.ar    1  UNL1        0.0193
     14 C          63.2903   86.1143   12.9984 C.ar    1  UNL1        0.0031
     15 C          63.1608   84.6670   12.6261 C.ar    1  UNL1        0.0207
     16 C          63.9098   83.6234   13.4007 C.ar    1  UNL1        0.0989
     17 N          64.7885   84.0272   14.5474 N.ar    1  UNL1       -0.2423
     18 C          64.9180   85.4745   14.9196 C.ar    1  UNL1        0.0988
     19 O          66.6092   91.5718   14.9554 O.3     1  UNL1       -0.4712
     20 C          67.8146   92.2454   15.5412 C.3     1  UNL1        0.2525
@<TRIPOS>BOND
     1     7     8    1
     2     8     1    1
     3     1     2   ar
     4     2     3   ar
     5     3     4   ar
     6     4     9    1
     7     9    10    2
     8     9    11    1
     9    11    12    2
    10    12    13    1
    11    13    14   ar
    12    14    15   ar
    13    15    16   ar
    14    16    17   ar
    15    17    18   ar
    16     4     5   ar
    17     5    19    1
    18    19    20    1
    19     5     6   ar
    20     6     1   ar
    21    18    13   ar
@<TRIPOS>MOLECULE
*****
 20 21 0 0 0
SMALL
GASTEIGER

@<TRIPOS>ATOM
      1 C          59.6201   88.4423    7.7969 C.ar    1  UNL1        0.1418
      2 C          59.8230   86.9596    7.8983 C.ar    1  UNL1        0.0372
      3 C          60.6454   86.3899    9.0160 C.ar    1  UNL1        0.0093
      4 C          61.2648   87.3029   10.0323 C.ar    1  UNL1        0.0731
      5 C          61.0618   88.7856    9.9309 C.ar    1  UNL1        0.1448
      6 C          60.2394   89.3553    8.8132 C.ar    1  UNL1        0.0739
      7 C          59.3182   90.1696    5.8798 C.3     1  UNL1        0.2525
      8 O          58.7977   89.0121    6.6793 O.3     1  UNL1       -0.4713
      9 C          62.0871   86.7332   11.1499 C.2     1  UNL1        0.1986
     10 O          62.9511   87.6351   11.9805 O.2     1  UNL1       -0.2865
     11 C          62.0454   85.2615   11.4370 C.2     1  UNL1        0.0422
     12 C          62.7273   84.7156   12.6564 C.2     1  UNL1        0.0048
     13 C          62.6856   83.2439   12.9434 C.ar    1  UNL1        0.0193
     14 C          62.8847   82.2570   11.8316 C.ar    1  UNL1        0.0031
     15 C          62.8430   80.7852   12.1186 C.ar    1  UNL1        0.0207
     16 C          62.6022   80.3005   13.5175 C.ar    1  UNL1        0.0989
     17 N          62.4030   81.2875   14.6294 N.ar    1  UNL1       -0.2423
     18 C          62.4447   82.7591   14.3424 C.ar    1  UNL1        0.0988
     19 O          61.6811   89.6987   10.9471 O.3     1  UNL1       -0.4712
     20 C          62.6385   90.7676   10.5103 C.3     1  UNL1        0.2525
@<TRIPOS>BOND
     1     7     8    1
     2     8     1    1
     3     1     2   ar
     4     2     3   ar
     5     3     4   ar
     6     4     9    1
     7     9    10    2
     8     9    11    1
     9    11    12    2
    10    12    13    1
    11    13    14   ar
    12    14    15   ar
    13    15    16   ar
    14    16    17   ar
    15    17    18   ar
    16     4     5   ar
    17     5    19    1
    18    19    20    1
    19     5     6   ar
    20     6     1   ar
    21    18    13   ar
@<TRIPOS>MOLECULE
*****
 20 21 0 0 0
SMALL
GASTEIGER

@<TRIPOS>ATOM
      1 C          66.3439   93.5332   11.3374 C.ar    1  UNL1        0.1418
      2 C          65.2635   93.0170   10.4340 C.ar    1  UNL1        0.0372
      3 C          64.3100   91.9695   10.9275 C.ar    1  UNL1        0.0093
      4 C          64.4369   91.4381   12.3244 C.ar    1  UNL1        0.0731
      5 C          65.5173   91.9542   13.2278 C.ar    1  UNL1        0.1448
      6 C          66.4708   93.0018   12.7344 C.ar    1  UNL1        0.0739
      7 C          67.7397   94.5768    9.4107 C.3     1  UNL1        0.2525
      8 O          67.2975   94.5807   10.8440 O.3     1  UNL1       -0.4713
      9 C          63.4834   90.3906   12.8179 C.2     1  UNL1        0.1986
     10 O          62.9917   90.4315   14.2344 O.2     1  UNL1       -0.2865
     11 C          63.0215   89.3022   11.8948 C.2     1  UNL1        0.0422
     12 C          61.9421   89.5784   10.8905 C.2     1  UNL1        0.0048
     13 C          61.4802   88.4899    9.9675 C.ar    1  UNL1        0.0193
     14 C          62.1712   87.1586    9.9728 C.ar    1  UNL1        0.0031
     15 C          61.7094   86.0701    9.0497 C.ar    1  UNL1        0.0207
     16 C          60.5565   86.3131    8.1214 C.ar    1  UNL1        0.0989
     17 N          59.8655   87.6445    8.1161 N.ar    1  UNL1       -0.2423
     18 C          60.3274   88.7329    9.0391 C.ar    1  UNL1        0.0988
     19 O          65.6443   91.4228   14.6249 O.3     1  UNL1       -0.4712
     20 C          65.8582   92.3676   15.7701 C.3     1  UNL1        0.2525
@<TRIPOS>BOND
     1     7     8    1
     2     8     1    1
     3     1     2   ar
     4     2     3   ar
     5     3     4   ar
     6     4     9    1
     7     9    10    2
     8     9    11    1
     9    11    12    2
    10    12    13    1
    11    13    14   ar
    12    14    15   ar
    13    15    16   ar
    14    16    17   ar
    15    17    18   ar
    16     4     5   ar
    17     5    19    1
    18    19    20    1
    19     5     6   ar
    20     6     1   ar
    21    18    13   ar
@<TRIPOS>MOLECULE
*****
 20 21 0 0 0
SMALL
GASTEIGER

@<TRIPOS>ATOM
      1 C          64.9286   92.3153   12.1367 C.ar    1  UNL1        0.1418
      2 C          64.3681   92.0422   10.7725 C.ar    1  UNL1        0.0372
      3 C          63.4594   90.8686   10.5561 C.ar    1  UNL1        0.0093
      4 C          63.1111   89.9681   11.7040 C.ar    1  UNL1        0.0731
      5 C          63.6716   90.2412   13.0682 C.ar    1  UNL1        0.1448
      6 C          64.5804   91.4148   13.2846 C.ar    1  UNL1        0.0739
      7 C          66.5557   93.6504   13.6599 C.3     1  UNL1        0.2525
      8 O          65.8374   93.4889   12.3531 O.3     1  UNL1       -0.4713
      9 C          62.2024   88.7945   11.4876 C.2     1  UNL1        0.1986
     10 O          60.7763   89.0156   11.0785 O.2     1  UNL1       -0.2865
     11 C          62.7197   87.3998   11.6804 C.2     1  UNL1        0.0422
     12 C          62.1984   86.2819   10.8269 C.2     1  UNL1        0.0048
     13 C          62.7158   84.8871   11.0197 C.ar    1  UNL1        0.0193
     14 C          63.4875   84.2151    9.9230 C.ar    1  UNL1        0.0031
     15 C          64.0049   82.8204   10.1159 C.ar    1  UNL1        0.0207
     16 C          63.7504   82.0977   11.4054 C.ar    1  UNL1        0.0989
     17 N          62.9786   82.7698   12.5021 N.ar    1  UNL1       -0.2423
     18 C          62.4613   84.1644   12.3093 C.ar    1  UNL1        0.0988
     19 O          63.3234   89.3406   14.2162 O.3     1  UNL1       -0.4712
     20 C          64.3153   88.3249   14.7003 C.3     1  UNL1        0.2525
@<TRIPOS>BOND
     1     7     8    1
     2     8     1    1
     3     1     2   ar
     4     2     3   ar
     5     3     4   ar
     6     4     9    1
     7     9    10    2
     8     9    11    1
     9    11    12    2
    10    12    13    1
    11    13    14   ar
    12    14    15   ar
    13    15    16   ar
    14    16    17   ar
    15    17    18   ar
    16     4     5   ar
    17     5    19    1
    18    19    20    1
    19     5     6   ar
    20     6     1   ar
    21    18    13   ar
@<TRIPOS>MOLECULE
*****
 20 21 0 0 0
SMALL
GASTEIGER

@<TRIPOS>ATOM
      1 C          62.8528   81.7004   12.4692 C.ar    1  UNL1        0.1418
      2 C          63.4367   82.4227   11.2913 C.ar    1  UNL1        0.0372
      3 C          63.5085   83.9210   11.2906 C.ar    1  UNL1        0.0093
      4 C          62.9965   84.6970   12.4676 C.ar    1  UNL1        0.0731
      5 C          62.4126   83.9747   13.6455 C.ar    1  UNL1        0.1448
      6 C          62.3408   82.4765   13.6462 C.ar    1  UNL1        0.0739
      7 C          62.1093   79.4841   13.6027 C.3     1  UNL1        0.2525
      8 O          62.7809   80.2022   12.4699 O.3     1  UNL1       -0.4713
      9 C          63.0683   86.1953   12.4669 C.2     1  UNL1        0.1986
     10 O          63.8320   86.9101   13.5420 O.2     1  UNL1       -0.2865
     11 C          62.3766   86.9788   11.3910 C.2     1  UNL1        0.0422
     12 C          61.3244   86.3246   10.5455 C.2     1  UNL1        0.0048
     13 C          60.6326   87.1082    9.4695 C.ar    1  UNL1        0.0193
     14 C          59.8422   86.3951    8.4128 C.ar    1  UNL1        0.0031
     15 C          59.1505   87.1787    7.3368 C.ar    1  UNL1        0.0207
     16 C          59.2492   88.6753    7.3177 C.ar    1  UNL1        0.0989
     17 N          60.0396   89.3884    8.3746 N.ar    1  UNL1       -0.2423
     18 C          60.7313   88.6048    9.4504 C.ar    1  UNL1        0.0988
     19 O          61.9005   84.7508   14.8226 O.3     1  UNL1       -0.4712
     20 C          62.6647   84.7468   16.1134 C.3     1  UNL1        0.2525
@<TRIPOS>BOND
     1     7     8    1
     2     8     1    1
     3     1     2   ar
     4     2     3   ar
     5     3     4   ar
     6     4     9    1
     7     9    10    2
     8     9    11    1
     9    11    12    2
    10    12    13    1
    11    13    14   ar
    12    14    15   ar
    13    15    16   ar
    14    16    17   ar
    15    17    18   ar
    16     4     5   ar
    17     5    19    1
    18    19    20    1
    19     5     6   ar
    20     6     1   ar
    21    18    13   ar
@<TRIPOS>MOLECULE
*****
 20 21 0 0 0
SMALL
GASTEIGER

@<TRIPOS>ATOM
      1 C          63.6700   83.4952   10.5297 C.ar    1  UNL1        0.1418
      2 C          63.1132   84.2903    9.3861 C.ar    1  UNL1        0.0372
      3 C          62.5301   85.6503    9.6318 C.ar    1  UNL1        0.0093
      4 C          62.5039   86.2153   11.0210 C.ar    1  UNL1        0.0731
      5 C          63.0608   85.4203   12.1646 C.ar    1  UNL1        0.1448
      6 C          63.6439   84.0602   11.9189 C.ar    1  UNL1        0.0739
      7 C          63.4003   80.9124   10.4500 C.3     1  UNL1        0.2525
      8 O          64.2531   82.1352   10.2840 O.3     1  UNL1       -0.4713
      9 C          61.9209   87.5753   11.2667 C.2     1  UNL1        0.1986
     10 O          60.4711   87.7163   11.6246 O.2     1  UNL1       -0.2865
     11 C          62.7877   88.7944   11.1546 C.2     1  UNL1        0.0422
     12 C          63.0882   89.6157   12.3732 C.2     1  UNL1        0.0048
     13 C          63.9550   90.8348   12.2610 C.ar    1  UNL1        0.0193
     14 C          64.1244   91.5151   10.9350 C.ar    1  UNL1        0.0031
     15 C          64.9912   92.7342   10.8228 C.ar    1  UNL1        0.0207
     16 C          65.6886   93.2729   12.0366 C.ar    1  UNL1        0.0989
     17 N          65.5191   92.5925   13.3627 N.ar    1  UNL1       -0.2423
     18 C          64.6523   91.3735   13.4749 C.ar    1  UNL1        0.0988
     19 O          63.0347   85.9852   13.5539 O.3     1  UNL1       -0.4712
     20 C          64.1704   85.7140   14.4954 C.3     1  UNL1        0.2525
@<TRIPOS>BOND
     1     7     8    1
     2     8     1    1
     3     1     2   ar
     4     2     3   ar
     5     3     4   ar
     6     4     9    1
     7     9    10    2
     8     9    11    1
     9    11    12    2
    10    12    13    1
    11    13    14   ar
    12    14    15   ar
    13    15    16   ar
    14    16    17   ar
    15    17    18   ar
    16     4     5   ar
    17     5    19    1
    18    19    20    1
    19     5     6   ar
    20     6     1   ar
    21    18    13   ar
@<TRIPOS>MOLECULE
*****
 20 21 0 0 0
SMALL
GASTEIGER

@<TRIPOS>ATOM
      1 C          63.6658   82.8996   13.1409 C.ar    1  UNL1        0.1418
      2 C          64.1392   82.9983   14.5608 C.ar    1  UNL1        0.0372
      3 C          64.2023   84.3346   15.2392 C.ar    1  UNL1        0.0093
      4 C          63.7920   85.5722   14.4978 C.ar    1  UNL1        0.0731
      5 C          63.3186   85.4736   13.0779 C.ar    1  UNL1        0.1448
      6 C          63.2555   84.1373   12.3995 C.ar    1  UNL1        0.0739
      7 C          62.6545   80.5133   12.9605 C.3     1  UNL1        0.2525
      8 O          63.6028   81.5633   12.4624 O.3     1  UNL1       -0.4713
      9 C          63.8550   86.9086   15.1763 C.2     1  UNL1        0.1986
     10 O          63.2168   87.0981   16.5204 O.2     1  UNL1       -0.2865
     11 C          64.5563   88.0553   14.5106 C.2     1  UNL1        0.0422
     12 C          64.0953   89.4613   14.7570 C.2     1  UNL1        0.0048
     13 C          64.7966   90.6081   14.0912 C.ar    1  UNL1        0.0193
     14 C          66.0608   91.1587   14.6816 C.ar    1  UNL1        0.0031
     15 C          66.7621   92.3055   14.0159 C.ar    1  UNL1        0.0207
     16 C          66.1991   92.9016   12.7598 C.ar    1  UNL1        0.0989
     17 N          64.9349   92.3509   12.1694 N.ar    1  UNL1       -0.2423
     18 C          64.2336   91.2041   12.8351 C.ar    1  UNL1        0.0988
     19 O          62.9082   86.7113   12.3364 O.3     1  UNL1       -0.4712
     20 C          62.0793   86.5995   11.0913 C.3     1  UNL1        0.2525
@<TRIPOS>BOND
     1     7     8    1
     2     8     1    1
     3     1     2   ar
     4     2     3   ar
     5     3     4   ar
     6     4     9    1
     7     9    10    2
     8     9    11    1
     9    11    12    2
    10    12    13    1
    11    13    14   ar
    12    14    15   ar
    13    15    16   ar
    14    16    17   ar
    15    17    18   ar
    16     4     5   ar
    17     5    19    1
    18    19    20    1
    19     5     6   ar
    20     6     1   ar
    21    18    13   ar
