@<TRIPOS>MOLECULE
*****
 84 90 0 0 0
SMALL
GASTEIGER

@<TRIPOS>ATOM
      1 C          62.2808   86.2038    8.7780 C.3     1  UNL1        0.0705
      2 C          61.6783   85.9910   10.1350 C.3     1  UNL1        0.0212
      3 C          62.1732   84.8770   11.0091 C.3     1  UNL1        0.0212
      4 C          63.2706   83.9757   10.5261 C.3     1  UNL1        0.0705
      5 C          63.8732   84.1885    9.1689 C.3     1  UNL1        0.0212
      6 C          63.3783   85.3025    8.2949 C.3     1  UNL1        0.0212
      7 N          63.7655   82.8617   11.4001 N.pl3   1  UNL1       -0.3196
      8 H          64.2886   82.1248   11.0095 H       1  UNL1        0.1481
      9 C          63.4635   82.8704   12.8694 C.ar    1  UNL1        0.1316
     10 N          63.1554   81.5855   13.5794 N.ar    1  UNL1       -0.2092
     11 C          62.8534   81.5942   15.0486 C.ar    1  UNL1        0.2000
     12 N          62.8595   82.8878   15.8079 N.ar    1  UNL1       -0.2238
     13 C          63.1676   84.1727   15.0980 C.ar    1  UNL1        0.0888
     14 C          63.1738   85.4663   15.8573 C.ar    1  UNL1        0.0574
     15 C          63.4819   86.7512   15.1472 C.ar    1  UNL1        0.1535
     16 C          63.7839   86.7425   13.6780 C.ar    1  UNL1        0.0850
     17 C          63.7778   85.4489   12.9187 C.ar    1  UNL1        0.0220
     18 C          63.4697   84.1640   13.6287 C.ar    1  UNL1        0.0505
     19 N          64.0921   88.0275   12.9680 N.am    1  UNL1       -0.2802
     20 C          63.0011   88.7717   12.2569 C.2     1  UNL1        0.2443
     21 O          61.6019   88.2311   12.2557 O.2     1  UNL1       -0.2730
     22 H          65.0104   88.3823   12.9688 H       1  UNL1        0.1550
     23 C          63.3092   90.0566   11.5469 C.3     1  UNL1        0.1521
     24 C          62.7564   90.4853   10.2200 C.3     1  UNL1        0.0310
     25 C          63.3298   91.8320    9.8921 C.3     1  UNL1        0.0237
     26 C          64.2371   92.2357   11.0165 C.3     1  UNL1        0.0939
     27 N          64.2243   91.1384   12.0392 N.am    1  UNL1       -0.2717
     28 C          64.9919   91.1253   13.3278 C.2     1  UNL1        0.2438
     29 O          64.8791   89.9524   14.2561 O.2     1  UNL1       -0.2731
     30 C          65.8723   92.2850   13.6882 C.3     1  UNL1        0.1487
     31 C          66.9257   92.1272   14.7444 C.3     1  UNL1        0.0250
     32 C          67.8691   91.5698   13.7201 C.3     1  UNL1        0.0021
     33 C          65.9822   92.6845   15.7687 C.3     1  UNL1        0.0021
     34 C          67.9791   91.9693   15.8006 C.3     1  UNL1        0.0021
     35 N          65.6993   93.6026   12.9925 N.am    1  UNL1       -0.2973
     36 C          66.4725   93.8972   11.7414 C.2     1  UNL1        0.2370
     37 O          67.4187   92.8743   11.1860 O.2     1  UNL1       -0.2737
     38 H          65.0783   94.2739   13.3570 H       1  UNL1        0.1499
     39 C          66.2996   95.2148   11.0455 C.3     1  UNL1        0.1316
     40 C          66.1775   96.4764   11.8477 C.3     1  UNL1        0.0270
     41 N          66.2486   95.2707    9.5475 N.3     1  UNL1       -0.2902
     42 C          67.5107   95.4673    8.7609 C.3     1  UNL1        0.0862
     43 H          65.6261   96.0407    9.3026 H       1  UNL1        0.1237
     44 O          63.4880   88.0448   15.9065 O.3     1  UNL1       -0.4701
     45 C          63.0215   88.0802   17.3317 C.3     1  UNL1        0.2525
     46 N          61.7859   87.3179    7.9039 N.pl3   1  UNL1       -0.3196
     47 H          62.4283   87.9055    7.4444 H       1  UNL1        0.1481
     48 C          60.2999   90.7774    5.4395 C.ar    1  UNL1        0.0850
     49 C          60.7953   89.6242    6.2610 C.ar    1  UNL1        0.0220
     50 C          59.8168   88.6897    6.9085 C.ar    1  UNL1        0.0505
     51 C          60.3121   87.5365    7.7300 C.ar    1  UNL1        0.1316
     52 N          59.3337   86.6020    8.3776 N.ar    1  UNL1       -0.2092
     53 C          57.8600   86.8207    8.2037 C.ar    1  UNL1        0.2000
     54 N          57.3646   87.9739    7.3822 N.ar    1  UNL1       -0.2238
     55 C          58.3430   88.9084    6.7346 C.ar    1  UNL1        0.0888
     56 C          57.8477   90.0616    5.9131 C.ar    1  UNL1        0.0574
     57 C          58.8261   90.9961    5.2656 C.ar    1  UNL1        0.1535
     58 C          61.3151   91.8421    3.2980 C.2     1  UNL1        0.2443
     59 O          60.3734   91.0378    2.4517 O.2     1  UNL1       -0.2730
     60 N          61.2783   91.7119    4.7919 N.am    1  UNL1       -0.2802
     61 H          61.8964   92.2398    5.3474 H       1  UNL1        0.1550
     62 C          60.6102   94.1031    1.0529 C.2     1  UNL1        0.2438
     63 O          59.4221   93.3149    1.5189 O.2     1  UNL1       -0.2731
     64 N          61.9695   93.8159    1.6185 N.am    1  UNL1       -0.2717
     65 C          63.2435   94.5176    1.2514 C.3     1  UNL1        0.0939
     66 C          64.3548   93.9120    2.0565 C.3     1  UNL1        0.0237
     67 C          63.7677   92.8360    2.9212 C.3     1  UNL1        0.0310
     68 C          62.2935   92.7767    2.6505 C.3     1  UNL1        0.1521
     69 C          60.4391   95.1785    0.0213 C.3     1  UNL1        0.1487
     70 C          59.1657   95.9694   -0.0335 C.3     1  UNL1        0.0250
     71 C          58.6643   95.0857   -1.1369 C.3     1  UNL1        0.0021
     72 C          59.6672   96.8531    1.0699 C.3     1  UNL1        0.0021
     73 C          57.8924   96.7604   -0.0882 C.3     1  UNL1        0.0021
     74 C          61.9648   94.4097   -1.9360 C.2     1  UNL1        0.2370
     75 O          61.2862   93.0720   -1.9395 O.2     1  UNL1       -0.2737
     76 N          61.5413   95.4630   -0.9556 N.am    1  UNL1       -0.2973
     77 H          61.9867   96.3409   -0.9533 H       1  UNL1        0.1499
     78 C          63.0670   94.6940   -2.9129 C.3     1  UNL1        0.1316
     79 C          63.3056   93.7648   -4.0660 C.3     1  UNL1        0.0270
     80 C          65.0000   95.9210   -1.6848 C.3     1  UNL1        0.0862
     81 N          63.9307   95.9077   -2.7366 N.3     1  UNL1       -0.2902
     82 H          64.3946   96.0712   -3.6302 H       1  UNL1        0.1237
     83 O          58.3308   92.1492    4.4441 O.3     1  UNL1       -0.4701
     84 C          56.8587   92.3379    4.2271 C.3     1  UNL1        0.2525
@<TRIPOS>BOND
     1    80    81    1
     2    81    78    1
     3    78    79    1
     4    78    74    1
     5    74    75    2
     6    74    76   am
     7    69    76    1
     8    69    62    1
     9    62    63    2
    10    62    64   am
    11    64    65    1
    12    65    66    1
    13    66    67    1
    14    67    68    1
    15    68    58    1
    16    58    59    2
    17    58    60   am
    18    60    48    1
    19    48    49   ar
    20    49    50   ar
    21    50    51   ar
    22    51    46    1
    23     1    46    1
    24     1     2    1
    25     2     3    1
    26     3     4    1
    27     4     7    1
    28     7     9    1
    29     9    10   ar
    30    10    11   ar
    31    11    12   ar
    32    12    13   ar
    33    13    14   ar
    34    14    15   ar
    35    15    44    1
    36    44    45    1
    37    15    16   ar
    38    16    19    1
    39    19    20   am
    40    20    21    2
    41    23    20    1
    42    23    24    1
    43    24    25    1
    44    25    26    1
    45    26    27    1
    46    27    28   am
    47    28    29    2
    48    28    30    1
    49    30    35    1
    50    35    36   am
    51    36    37    2
    52    36    39    1
    53    39    40    1
    54    39    41    1
    55    41    42    1
    56    30    31    1
    57    31    32    1
    58    31    33    1
    59    31    34    1
    60    16    17   ar
    61    17    18   ar
    62     4     5    1
    63     5     6    1
    64    51    52   ar
    65    52    53   ar
    66    53    54   ar
    67    54    55   ar
    68    55    56   ar
    69    56    57   ar
    70    57    83    1
    71    83    84    1
    72    69    70    1
    73    70    71    1
    74    70    72    1
    75    70    73    1
    76    68    64    1
    77    57    48   ar
    78    55    50   ar
    79     6     1    1
    80    18     9   ar
    81    18    13   ar
    82    27    23    1
    83    81    82    1
    84    76    77    1
    85    60    61    1
    86    46    47    1
    87     7     8    1
    88    19    22    1
    89    35    38    1
    90    41    43    1
@<TRIPOS>MOLECULE
*****
 84 90 0 0 0
SMALL
GASTEIGER

@<TRIPOS>ATOM
      1 C          62.1189   86.6240    8.7326 C.3     1  UNL1        0.0705
      2 C          61.4320   86.3746   10.0426 C.3     1  UNL1        0.0212
      3 C          61.8179   85.1903   10.8783 C.3     1  UNL1        0.0212
      4 C          62.8907   84.2553   10.4041 C.3     1  UNL1        0.0705
      5 C          63.5777   84.5047    9.0941 C.3     1  UNL1        0.0212
      6 C          63.1918   85.6890    8.2584 C.3     1  UNL1        0.0212
      7 N          63.2766   83.0710   11.2399 N.pl3   1  UNL1       -0.3196
      8 H          63.6783   82.2788   10.8153 H       1  UNL1        0.1481
      9 C          63.0504   83.0937   12.7225 C.ar    1  UNL1        0.1316
     10 N          62.6770   81.8325   13.4437 N.ar    1  UNL1       -0.2092
     11 C          62.4508   81.8552   14.9263 C.ar    1  UNL1        0.2000
     12 N          62.5981   83.1390   15.6879 N.ar    1  UNL1       -0.2238
     13 C          62.9715   84.4002   14.9669 C.ar    1  UNL1        0.0888
     14 C          63.1188   85.6840   15.7285 C.ar    1  UNL1        0.0574
     15 C          63.4922   86.9452   15.0074 C.ar    1  UNL1        0.1535
     16 C          63.7184   86.9226   13.5247 C.ar    1  UNL1        0.0850
     17 C          63.5711   85.6387   12.7631 C.ar    1  UNL1        0.0220
     18 C          63.1977   84.3776   13.4841 C.ar    1  UNL1        0.0505
     19 N          64.0918   88.1838   12.8036 N.am    1  UNL1       -0.2802
     20 C          63.0204   89.0991   12.2895 C.2     1  UNL1        0.2443
     21 O          61.5756   88.7533   12.4965 O.2     1  UNL1       -0.2730
     22 H          65.0401   88.4108   12.6677 H       1  UNL1        0.1550
     23 C          63.3939   90.3603   11.5685 C.3     1  UNL1        0.1521
     24 C          62.8672   90.8028   10.2354 C.3     1  UNL1        0.0310
     25 C          63.5074   92.1163    9.8969 C.3     1  UNL1        0.0237
     26 C          64.4298   92.4858   11.0206 C.3     1  UNL1        0.0939
     27 N          64.3597   91.4004   12.0537 N.am    1  UNL1       -0.2717
     28 C          65.1215   91.3620   13.3453 C.2     1  UNL1        0.2438
     29 O          64.9480   90.2052   14.2843 O.2     1  UNL1       -0.2731
     30 C          66.0568   92.4804   13.6978 C.3     1  UNL1        0.1487
     31 C          67.0720   92.2941   14.7863 C.3     1  UNL1        0.0250
     32 C          66.1010   92.8476   15.7867 C.3     1  UNL1        0.0021
     33 C          68.0430   91.7407   13.7859 C.3     1  UNL1        0.0021
     34 C          68.0873   92.1078   15.8747 C.3     1  UNL1        0.0021
     35 N          65.9770   93.7851   12.9620 N.am    1  UNL1       -0.2973
     36 C          66.7652   93.9845   11.7015 C.2     1  UNL1        0.2370
     37 O          67.6333   92.8794   11.1769 O.2     1  UNL1       -0.2737
     38 H          65.4072   94.5104   13.3063 H       1  UNL1        0.1499
     39 C          66.6854   95.2892   10.9655 C.3     1  UNL1        0.1316
     40 C          66.0111   96.4688   11.6009 C.3     1  UNL1        0.0270
     41 N          67.2800   95.4141    9.5941 N.3     1  UNL1       -0.2902
     42 C          67.2175   96.7241    8.8660 C.3     1  UNL1        0.0862
     43 H          66.8090   94.7272    9.0053 H       1  UNL1        0.1237
     44 O          63.6395   88.2291   15.7690 O.3     1  UNL1       -0.4701
     45 C          63.0080   88.3753   17.1218 C.3     1  UNL1        0.2525
     46 N          61.7330   87.8083    7.8969 N.pl3   1  UNL1       -0.3196
     47 H          62.4292   88.4003    7.5308 H       1  UNL1        0.1481
     48 C          60.5894   91.1081    5.0590 C.ar    1  UNL1        0.0850
     49 C          60.9706   90.0081    6.0049 C.ar    1  UNL1        0.0220
     50 C          59.9050   89.1905    6.6729 C.ar    1  UNL1        0.0505
     51 C          60.2862   88.0906    7.6189 C.ar    1  UNL1        0.1316
     52 N          59.2207   87.2730    8.2868 N.ar    1  UNL1       -0.2092
     53 C          57.7740   87.5553    8.0088 C.ar    1  UNL1        0.2000
     54 N          57.3928   88.6552    7.0629 N.ar    1  UNL1       -0.2238
     55 C          58.4583   89.4728    6.3949 C.ar    1  UNL1        0.0888
     56 C          58.0771   90.5728    5.4489 C.ar    1  UNL1        0.0574
     57 C          59.1426   91.3904    4.7810 C.ar    1  UNL1        0.1535
     58 C          61.7079   92.0098    2.8943 C.2     1  UNL1        0.2443
     59 O          60.6954   91.2764    2.0656 O.2     1  UNL1       -0.2730
     60 N          61.6549   91.9257    4.3910 N.am    1  UNL1       -0.2802
     61 H          62.3194   92.4071    4.9350 H       1  UNL1        0.1550
     62 C          61.3303   93.8294    0.2118 C.2     1  UNL1        0.2438
     63 O          60.0825   93.1211    0.6491 O.2     1  UNL1       -0.2731
     64 N          62.5998   93.6639    0.9934 N.am    1  UNL1       -0.2717
     65 C          63.9187   94.3056    0.6791 C.3     1  UNL1        0.0939
     66 C          64.9074   93.8658    1.7180 C.3     1  UNL1        0.0237
     67 C          64.1996   92.9523    2.6742 C.3     1  UNL1        0.0310
     68 C          62.7734   92.8275    2.2264 C.3     1  UNL1        0.1521
     69 C          61.3085   94.7033   -1.0071 C.3     1  UNL1        0.1487
     70 C          62.4843   94.7208   -1.9385 C.3     1  UNL1        0.0250
     71 C          62.6940   96.1771   -1.6463 C.3     1  UNL1        0.0021
     72 C          62.2745   93.2646   -2.2306 C.3     1  UNL1        0.0021
     73 C          63.6600   94.7383   -2.8698 C.3     1  UNL1        0.0021
     74 C          58.9296   94.9797   -2.0141 C.2     1  UNL1        0.2370
     75 O          58.9455   93.5433   -2.4459 O.2     1  UNL1       -0.2737
     76 N          60.1111   95.5598   -1.2947 N.am    1  UNL1       -0.2973
     77 H          60.1007   96.5026   -1.0113 H       1  UNL1        0.1499
     78 C          57.7321   95.8361   -2.3017 C.3     1  UNL1        0.1316
     79 C          56.9498   96.4357   -1.1711 C.3     1  UNL1        0.0270
     80 C          56.0055   96.7613   -4.0084 C.3     1  UNL1        0.0862
     81 N          57.3170   96.0929   -3.7201 N.3     1  UNL1       -0.2902
     82 H          58.0425   96.6752   -4.1384 H       1  UNL1        0.1237
     83 O          58.7614   92.4903    3.8350 O.3     1  UNL1       -0.4701
     84 C          59.2597   93.8858    4.0676 C.3     1  UNL1        0.2525
@<TRIPOS>BOND
     1    80    81    1
     2    81    78    1
     3    78    79    1
     4    78    74    1
     5    74    75    2
     6    74    76   am
     7    69    76    1
     8    69    62    1
     9    62    63    2
    10    62    64   am
    11    64    65    1
    12    65    66    1
    13    66    67    1
    14    67    68    1
    15    68    58    1
    16    58    59    2
    17    58    60   am
    18    60    48    1
    19    48    49   ar
    20    49    50   ar
    21    50    51   ar
    22    51    46    1
    23     1    46    1
    24     1     2    1
    25     2     3    1
    26     3     4    1
    27     4     7    1
    28     7     9    1
    29     9    10   ar
    30    10    11   ar
    31    11    12   ar
    32    12    13   ar
    33    13    14   ar
    34    14    15   ar
    35    15    44    1
    36    44    45    1
    37    15    16   ar
    38    16    19    1
    39    19    20   am
    40    20    21    2
    41    23    20    1
    42    23    24    1
    43    24    25    1
    44    25    26    1
    45    26    27    1
    46    27    28   am
    47    28    29    2
    48    28    30    1
    49    30    35    1
    50    35    36   am
    51    36    37    2
    52    36    39    1
    53    39    40    1
    54    39    41    1
    55    41    42    1
    56    30    31    1
    57    31    32    1
    58    31    33    1
    59    31    34    1
    60    16    17   ar
    61    17    18   ar
    62     4     5    1
    63     5     6    1
    64    51    52   ar
    65    52    53   ar
    66    53    54   ar
    67    54    55   ar
    68    55    56   ar
    69    56    57   ar
    70    57    83    1
    71    83    84    1
    72    69    70    1
    73    70    71    1
    74    70    72    1
    75    70    73    1
    76    68    64    1
    77    57    48   ar
    78    55    50   ar
    79     6     1    1
    80    18     9   ar
    81    18    13   ar
    82    27    23    1
    83    81    82    1
    84    76    77    1
    85    60    61    1
    86    46    47    1
    87     7     8    1
    88    19    22    1
    89    35    38    1
    90    41    43    1
@<TRIPOS>MOLECULE
*****
 84 90 0 0 0
SMALL
GASTEIGER

@<TRIPOS>ATOM
      1 C          64.7249   90.9012   12.1168 C.3     1  UNL1        0.0705
      2 C          64.8852   91.9727   11.0795 C.3     1  UNL1        0.0212
      3 C          64.0015   91.9815    9.8675 C.3     1  UNL1        0.0212
      4 C          62.9576   90.9187    9.6928 C.3     1  UNL1        0.0705
      5 C          62.7973   89.8470   10.7301 C.3     1  UNL1        0.0212
      6 C          63.6810   89.8383   11.9421 C.3     1  UNL1        0.0212
      7 N          62.0739   90.9274    8.4807 N.pl3   1  UNL1       -0.3196
      8 H          62.2427   91.5687    7.7530 H       1  UNL1        0.1481
      9 C          60.9330   89.9592    8.3774 C.ar    1  UNL1        0.1316
     10 N          60.8673   88.7764    9.2976 N.ar    1  UNL1       -0.2092
     11 C          59.7264   87.8081    9.1943 C.ar    1  UNL1        0.2000
     12 N          58.6511   88.0226    8.1707 N.ar    1  UNL1       -0.2238
     13 C          58.7167   89.2053    7.2505 C.ar    1  UNL1        0.0888
     14 C          57.6414   89.4197    6.2269 C.ar    1  UNL1        0.0574
     15 C          57.7070   90.6025    5.3066 C.ar    1  UNL1        0.1535
     16 C          58.8479   91.5708    5.4100 C.ar    1  UNL1        0.0850
     17 C          59.9232   91.3563    6.4336 C.ar    1  UNL1        0.0220
     18 C          59.8576   90.1736    7.3538 C.ar    1  UNL1        0.0505
     19 N          58.9136   92.7535    4.4897 N.am    1  UNL1       -0.2802
     20 C          60.0843   92.9220    3.5673 C.2     1  UNL1        0.2443
     21 O          61.1895   91.9078    3.5651 O.2     1  UNL1       -0.2730
     22 H          58.1882   93.4192    4.4912 H       1  UNL1        0.1550
     23 C          60.1499   94.1048    2.6471 C.3     1  UNL1        0.1521
     24 C          60.1862   95.5453    3.0640 C.3     1  UNL1        0.0310
     25 C          60.2495   96.3855    1.8230 C.3     1  UNL1        0.0237
     26 C          60.2523   95.4644    0.6391 C.3     1  UNL1        0.0939
     27 N          60.1908   94.0548    1.1485 N.am    1  UNL1       -0.2717
     28 C          60.1732   92.8132    0.3070 C.2     1  UNL1        0.2438
     29 O          60.1096   91.4647    0.9609 O.2     1  UNL1       -0.2731
     30 C          60.2192   92.9201   -1.1885 C.3     1  UNL1        0.1487
     31 C          61.4224   93.5110   -1.8615 C.3     1  UNL1        0.0250
     32 C          60.5339   94.1571   -2.8828 C.3     1  UNL1        0.0021
     33 C          62.3109   92.8648   -0.8402 C.3     1  UNL1        0.0021
     34 C          62.6258   94.1018   -2.5345 C.3     1  UNL1        0.0021
     35 N          59.0619   92.4361   -2.0110 N.am    1  UNL1       -0.2973
     36 C          57.6756   92.9280   -1.7174 C.2     1  UNL1        0.2370
     37 O          57.4465   93.9037   -0.6014 O.2     1  UNL1       -0.2737
     38 H          59.2122   91.7957   -2.7434 H       1  UNL1        0.1499
     39 C          56.5182   92.4440   -2.5398 C.3     1  UNL1        0.1316
     40 C          56.0927   93.2079   -3.7586 C.3     1  UNL1        0.0270
     41 N          55.7863   91.1962   -2.1434 N.3     1  UNL1       -0.2902
     42 C          55.4368   90.1701   -3.1803 C.3     1  UNL1        0.0862
     43 H          54.9093   91.4926   -1.7152 H       1  UNL1        0.1237
     44 O          56.6317   90.8170    4.2831 O.3     1  UNL1       -0.4701
     45 C          55.4589   91.6967    4.6004 C.3     1  UNL1        0.2525
     46 N          65.6086   90.8924   13.3289 N.pl3   1  UNL1       -0.3196
     47 H          66.5572   90.6429   13.2446 H       1  UNL1        0.1481
     48 C          63.5593   87.7793   15.8506 C.ar    1  UNL1        0.0850
     49 C          64.2424   88.8170   15.0100 C.ar    1  UNL1        0.0220
     50 C          64.3638   90.2261   15.5098 C.ar    1  UNL1        0.0505
     51 C          65.0469   91.2638   14.6693 C.ar    1  UNL1        0.1316
     52 N          65.1683   92.6728   15.1690 N.ar    1  UNL1       -0.2092
     53 C          64.6066   93.0442   16.5094 C.ar    1  UNL1        0.2000
     54 N          63.9235   92.0065   17.3499 N.ar    1  UNL1       -0.2238
     55 C          63.8021   90.5974   16.8502 C.ar    1  UNL1        0.0888
     56 C          63.1190   89.5597   17.6907 C.ar    1  UNL1        0.0574
     57 C          62.9976   88.1507   17.1910 C.ar    1  UNL1        0.1535
     58 C          64.6718   85.5583   15.0894 C.2     1  UNL1        0.2443
     59 O          66.0270   86.1553   15.3277 O.2     1  UNL1       -0.2730
     60 N          63.4379   86.3703   15.3508 N.am    1  UNL1       -0.2802
     61 H          62.5485   85.9784   15.1943 H       1  UNL1        0.1550
     62 C          63.3405   84.6360   12.2562 C.2     1  UNL1        0.2438
     63 O          63.3204   86.1182   12.4859 O.2     1  UNL1       -0.2731
     64 N          63.9384   83.7253   13.2873 N.am    1  UNL1       -0.2717
     65 C          64.0293   82.2307   13.1971 C.3     1  UNL1        0.0939
     66 C          64.6975   81.7310   14.4437 C.3     1  UNL1        0.0237
     67 C          65.0194   82.9166   15.3042 C.3     1  UNL1        0.0310
     68 C          64.5503   84.1491   14.5896 C.3     1  UNL1        0.1521
     69 C          62.7627   84.0645   10.9954 C.3     1  UNL1        0.1487
     70 C          62.6195   84.9281    9.7773 C.3     1  UNL1        0.0250
     71 C          61.4008   85.5675   10.3739 C.3     1  UNL1        0.0021
     72 C          63.8382   84.2888    9.1808 C.3     1  UNL1        0.0021
     73 C          62.4763   85.7917    8.5593 C.3     1  UNL1        0.0021
     74 C          63.3208   81.5549   10.6210 C.2     1  UNL1        0.2370
     75 O          64.7478   81.9154   10.3321 O.2     1  UNL1       -0.2737
     76 N          62.3282   82.6295   10.9527 N.am    1  UNL1       -0.2973
     77 H          61.3915   82.3929   11.1424 H       1  UNL1        0.1499
     78 C          62.8863   80.1198   10.5783 C.3     1  UNL1        0.1316
     79 C          62.5083   79.4892    9.2709 C.3     1  UNL1        0.0270
     80 C          61.9779   79.7771   12.9882 C.3     1  UNL1        0.0862
     81 N          62.8298   79.3154   11.8431 N.3     1  UNL1       -0.2902
     82 H          62.4989   78.3855   11.5861 H       1  UNL1        0.1237
     83 O          62.3145   87.1130   18.0315 O.3     1  UNL1       -0.4701
     84 C          61.8863   85.8132   17.4174 C.3     1  UNL1        0.2525
@<TRIPOS>BOND
     1    80    81    1
     2    81    78    1
     3    78    79    1
     4    78    74    1
     5    74    75    2
     6    74    76   am
     7    69    76    1
     8    69    62    1
     9    62    63    2
    10    62    64   am
    11    64    65    1
    12    65    66    1
    13    66    67    1
    14    67    68    1
    15    68    58    1
    16    58    59    2
    17    58    60   am
    18    60    48    1
    19    48    49   ar
    20    49    50   ar
    21    50    51   ar
    22    51    46    1
    23     1    46    1
    24     1     2    1
    25     2     3    1
    26     3     4    1
    27     4     7    1
    28     7     9    1
    29     9    10   ar
    30    10    11   ar
    31    11    12   ar
    32    12    13   ar
    33    13    14   ar
    34    14    15   ar
    35    15    44    1
    36    44    45    1
    37    15    16   ar
    38    16    19    1
    39    19    20   am
    40    20    21    2
    41    23    20    1
    42    23    24    1
    43    24    25    1
    44    25    26    1
    45    26    27    1
    46    27    28   am
    47    28    29    2
    48    28    30    1
    49    30    35    1
    50    35    36   am
    51    36    37    2
    52    36    39    1
    53    39    40    1
    54    39    41    1
    55    41    42    1
    56    30    31    1
    57    31    32    1
    58    31    33    1
    59    31    34    1
    60    16    17   ar
    61    17    18   ar
    62     4     5    1
    63     5     6    1
    64    51    52   ar
    65    52    53   ar
    66    53    54   ar
    67    54    55   ar
    68    55    56   ar
    69    56    57   ar
    70    57    83    1
    71    83    84    1
    72    69    70    1
    73    70    71    1
    74    70    72    1
    75    70    73    1
    76    68    64    1
    77    57    48   ar
    78    55    50   ar
    79     6     1    1
    80    18     9   ar
    81    18    13   ar
    82    27    23    1
    83    81    82    1
    84    76    77    1
    85    60    61    1
    86    46    47    1
    87     7     8    1
    88    19    22    1
    89    35    38    1
    90    41    43    1
@<TRIPOS>MOLECULE
*****
 84 90 0 0 0
SMALL
GASTEIGER

@<TRIPOS>ATOM
      1 C          62.9603   90.8989    9.6798 C.3     1  UNL1        0.0705
      2 C          63.9750   91.9876    9.8669 C.3     1  UNL1        0.0212
      3 C          64.8511   91.9951   11.0845 C.3     1  UNL1        0.0212
      4 C          64.7123   90.9139   12.1149 C.3     1  UNL1        0.0705
      5 C          63.6975   89.8252   11.9278 C.3     1  UNL1        0.0212
      6 C          62.8215   89.8177   10.7102 C.3     1  UNL1        0.0212
      7 N          65.5884   90.9214   13.3325 N.pl3   1  UNL1       -0.3196
      8 H          66.5407   90.6843   13.2552 H       1  UNL1        0.1481
      9 C          65.0134   91.2902   14.6679 C.ar    1  UNL1        0.1316
     10 N          65.1225   92.7002   15.1680 N.ar    1  UNL1       -0.2092
     11 C          64.5475   93.0690   16.5034 C.ar    1  UNL1        0.2000
     12 N          63.8633   92.0278   17.3388 N.ar    1  UNL1       -0.2238
     13 C          63.7542   90.6179   16.8388 C.ar    1  UNL1        0.0888
     14 C          63.0701   89.5767   17.6742 C.ar    1  UNL1        0.0574
     15 C          62.9609   88.1667   17.1741 C.ar    1  UNL1        0.1535
     16 C          63.5360   87.7979   15.8387 C.ar    1  UNL1        0.0850
     17 C          64.2201   88.8391   15.0033 C.ar    1  UNL1        0.0220
     18 C          64.3292   90.2490   15.5033 C.ar    1  UNL1        0.0505
     19 N          63.4268   86.3878   15.3387 N.am    1  UNL1       -0.2802
     20 C          64.6678   85.5890   15.0705 C.2     1  UNL1        0.2443
     21 O          66.0179   86.2002   15.3025 O.2     1  UNL1       -0.2730
     22 H          62.5407   85.9867   15.1864 H       1  UNL1        0.1550
     23 C          64.5586   84.1791   14.5705 C.3     1  UNL1        0.1521
     24 C          65.0441   82.9511   15.2822 C.3     1  UNL1        0.0310
     25 C          64.7303   81.7626   14.4226 C.3     1  UNL1        0.0237
     26 C          64.0510   82.2559   13.1795 C.3     1  UNL1        0.0939
     27 N          63.9448   83.7495   13.2710 N.am    1  UNL1       -0.2717
     28 C          63.3325   84.6544   12.2434 C.2     1  UNL1        0.2438
     29 O          63.2980   86.1362   12.4740 O.2     1  UNL1       -0.2731
     30 C          62.7546   84.0776   10.9851 C.3     1  UNL1        0.1487
     31 C          62.6101   84.9363    9.7637 C.3     1  UNL1        0.0250
     32 C          61.3956   85.5824   10.3616 C.3     1  UNL1        0.0021
     33 C          63.8246   84.2902    9.1658 C.3     1  UNL1        0.0021
     34 C          62.4657   85.7950    8.5423 C.3     1  UNL1        0.0021
     35 N          62.3211   82.6420   10.9481 N.am    1  UNL1       -0.2973
     36 C          63.3161   81.5663   10.6274 C.2     1  UNL1        0.2370
     37 O          64.7443   81.9261   10.3436 O.2     1  UNL1       -0.2737
     38 H          61.3837   82.4059   11.1344 H       1  UNL1        0.1499
     39 C          62.8827   80.1307   10.5904 C.3     1  UNL1        0.1316
     40 C          62.5144   79.4918    9.2843 C.3     1  UNL1        0.0270
     41 N          62.8177   79.3341   11.8597 N.3     1  UNL1       -0.2902
     42 C          61.9708   79.8112   13.0022 C.3     1  UNL1        0.0862
     43 H          63.7725   79.2617   12.2112 H       1  UNL1        0.1237
     44 O          62.2768   87.1255   18.0095 O.3     1  UNL1       -0.4701
     45 C          62.2546   85.6958   17.5561 C.3     1  UNL1        0.2525
     46 N          62.0842   90.8914    8.4622 N.pl3   1  UNL1       -0.3196
     47 H          62.2610   91.5191    7.7247 H       1  UNL1        0.1481
     48 C          58.8289   91.5541    5.4268 C.ar    1  UNL1        0.0850
     49 C          59.9140   91.3332    6.4386 C.ar    1  UNL1        0.0220
     50 C          59.8537   90.1483    7.3565 C.ar    1  UNL1        0.0505
     51 C          60.9388   89.9274    8.3683 C.ar    1  UNL1        0.1316
     52 N          60.8785   88.7426    9.2862 N.ar    1  UNL1       -0.2092
     53 C          59.7331   87.7787    9.1923 C.ar    1  UNL1        0.2000
     54 N          58.6480   87.9996    8.1805 N.ar    1  UNL1       -0.2238
     55 C          58.7083   89.1844    7.2626 C.ar    1  UNL1        0.0888
     56 C          57.6232   89.4053    6.2508 C.ar    1  UNL1        0.0574
     57 C          57.6835   90.5901    5.3329 C.ar    1  UNL1        0.1535
     58 C          60.0797   92.9378    3.6183 C.2     1  UNL1        0.2443
     59 O          61.2098   91.9520    3.6455 O.2     1  UNL1       -0.2730
     60 N          58.8892   92.7389    4.5089 N.am    1  UNL1       -0.2802
     61 H          58.1474   93.3859    4.4910 H       1  UNL1        0.1550
     62 C          59.9471   92.8478    0.3588 C.2     1  UNL1        0.2438
     63 O          59.8634   91.4992    1.0103 O.2     1  UNL1       -0.2731
     64 N          60.0790   94.0812    1.2021 N.am    1  UNL1       -0.2717
     65 C          60.1731   95.4900    0.6953 C.3     1  UNL1        0.0939
     66 C          60.2922   96.4019    1.8803 C.3     1  UNL1        0.0237
     67 C          60.2717   95.5569    3.1195 C.3     1  UNL1        0.0310
     68 C          60.1399   94.1227    2.7003 C.3     1  UNL1        0.1521
     69 C          59.8989   92.9629   -1.1360 C.3     1  UNL1        0.1487
     70 C          61.0963   93.4628   -1.8886 C.3     1  UNL1        0.0250
     71 C          61.9987   92.7389   -0.9339 C.3     1  UNL1        0.0021
     72 C          60.1938   94.1867   -2.8434 C.3     1  UNL1        0.0021
     73 C          62.2936   93.9626   -2.6413 C.3     1  UNL1        0.0021
     74 C          57.3931   93.3690   -1.6886 C.2     1  UNL1        0.2370
     75 O          57.3782   94.5446   -0.7571 O.2     1  UNL1       -0.2737
     76 N          58.6534   92.5782   -1.8781 N.am    1  UNL1       -0.2973
     77 H          58.6632   91.8066   -2.4895 H       1  UNL1        0.1499
     78 C          56.1475   92.9844   -2.4307 C.3     1  UNL1        0.1316
     79 C          55.4908   93.9672   -3.3541 C.3     1  UNL1        0.0270
     80 C          55.7955   90.5551   -3.2821 C.3     1  UNL1        0.0862
     81 N          55.5586   91.6168   -2.2492 N.3     1  UNL1       -0.2902
     82 H          55.9205   91.2551   -1.3668 H       1  UNL1        0.1237
     83 O          56.5984   90.8110    4.3211 O.3     1  UNL1       -0.4701
     84 C          55.4472   91.7176    4.6417 C.3     1  UNL1        0.2525
@<TRIPOS>BOND
     1    80    81    1
     2    81    78    1
     3    78    79    1
     4    78    74    1
     5    74    75    2
     6    74    76   am
     7    69    76    1
     8    69    62    1
     9    62    63    2
    10    62    64   am
    11    64    65    1
    12    65    66    1
    13    66    67    1
    14    67    68    1
    15    68    58    1
    16    58    59    2
    17    58    60   am
    18    60    48    1
    19    48    49   ar
    20    49    50   ar
    21    50    51   ar
    22    51    46    1
    23     1    46    1
    24     1     2    1
    25     2     3    1
    26     3     4    1
    27     4     7    1
    28     7     9    1
    29     9    10   ar
    30    10    11   ar
    31    11    12   ar
    32    12    13   ar
    33    13    14   ar
    34    14    15   ar
    35    15    44    1
    36    44    45    1
    37    15    16   ar
    38    16    19    1
    39    19    20   am
    40    20    21    2
    41    23    20    1
    42    23    24    1
    43    24    25    1
    44    25    26    1
    45    26    27    1
    46    27    28   am
    47    28    29    2
    48    28    30    1
    49    30    35    1
    50    35    36   am
    51    36    37    2
    52    36    39    1
    53    39    40    1
    54    39    41    1
    55    41    42    1
    56    30    31    1
    57    31    32    1
    58    31    33    1
    59    31    34    1
    60    16    17   ar
    61    17    18   ar
    62     4     5    1
    63     5     6    1
    64    51    52   ar
    65    52    53   ar
    66    53    54   ar
    67    54    55   ar
    68    55    56   ar
    69    56    57   ar
    70    57    83    1
    71    83    84    1
    72    69    70    1
    73    70    71    1
    74    70    72    1
    75    70    73    1
    76    68    64    1
    77    57    48   ar
    78    55    50   ar
    79     6     1    1
    80    18     9   ar
    81    18    13   ar
    82    27    23    1
    83    81    82    1
    84    76    77    1
    85    60    61    1
    86    46    47    1
    87     7     8    1
    88    19    22    1
    89    35    38    1
    90    41    43    1
@<TRIPOS>MOLECULE
*****
 84 90 0 0 0
SMALL
GASTEIGER

@<TRIPOS>ATOM
      1 C          62.9374   90.9242    9.6530 C.3     1  UNL1        0.0705
      2 C          63.9809   91.9869    9.8300 C.3     1  UNL1        0.0212
      3 C          64.8550   91.9841   11.0491 C.3     1  UNL1        0.0212
      4 C          64.6855   90.9185   12.0910 C.3     1  UNL1        0.0705
      5 C          63.6418   89.8557   11.9140 C.3     1  UNL1        0.0212
      6 C          62.7678   89.8585   10.6950 C.3     1  UNL1        0.0212
      7 N          65.5595   90.9157   13.3100 N.pl3   1  UNL1       -0.3196
      8 H          66.5102   90.6716   13.2335 H       1  UNL1        0.1481
      9 C          64.9851   91.2847   14.6456 C.ar    1  UNL1        0.1316
     10 N          65.0891   92.6962   15.1427 N.ar    1  UNL1       -0.2092
     11 C          64.5147   93.0652   16.4783 C.ar    1  UNL1        0.2000
     12 N          63.8363   92.0228   17.3169 N.ar    1  UNL1       -0.2238
     13 C          63.7323   90.6114   16.8198 C.ar    1  UNL1        0.0888
     14 C          63.0538   89.5691   17.6584 C.ar    1  UNL1        0.0574
     15 C          62.9498   88.1576   17.1613 C.ar    1  UNL1        0.1535
     16 C          63.5242   87.7886   15.8257 C.ar    1  UNL1        0.0850
     17 C          64.2027   88.8309   14.9872 C.ar    1  UNL1        0.0220
     18 C          64.3067   90.2423   15.4842 C.ar    1  UNL1        0.0505
     19 N          63.4202   86.3771   15.3286 N.am    1  UNL1       -0.2802
     20 C          64.6638   85.5777   15.0751 C.2     1  UNL1        0.2443
     21 O          66.0115   86.1896   15.3187 O.2     1  UNL1       -0.2730
     22 H          62.5357   85.9754   15.1688 H       1  UNL1        0.1550
     23 C          64.5597   84.1663   14.5781 C.3     1  UNL1        0.1521
     24 C          65.0471   82.9413   15.2936 C.3     1  UNL1        0.0310
     25 C          64.7386   81.7499   14.4360 C.3     1  UNL1        0.0237
     26 C          64.0606   82.2386   13.1904 C.3     1  UNL1        0.0939
     27 N          63.9500   83.7320   13.2782 N.am    1  UNL1       -0.2717
     28 C          63.3374   84.6328   12.2472 C.2     1  UNL1        0.2438
     29 O          63.2982   86.1150   12.4744 O.2     1  UNL1       -0.2731
     30 C          62.7639   84.0515   10.9889 C.3     1  UNL1        0.1487
     31 C          62.6284   84.9045    9.7625 C.3     1  UNL1        0.0250
     32 C          61.3655   85.4969   10.3141 C.3     1  UNL1        0.0021
     33 C          63.8913   84.3121    9.2110 C.3     1  UNL1        0.0021
     34 C          62.4929   85.7575    8.5360 C.3     1  UNL1        0.0021
     35 N          62.3259   82.6172   10.9571 N.am    1  UNL1       -0.2973
     36 C          63.3095   81.5404   10.6064 C.2     1  UNL1        0.2370
     37 O          64.7310   81.8978   10.2877 O.2     1  UNL1       -0.2737
     38 H          61.3930   82.3826   11.1663 H       1  UNL1        0.1499
     39 C          62.8716   80.1061   10.5746 C.3     1  UNL1        0.1316
     40 C          62.5280   79.4556    9.2674 C.3     1  UNL1        0.0270
     41 N          62.7774   79.3222   11.8500 N.3     1  UNL1       -0.2902
     42 C          62.0328   79.8863   13.0237 C.3     1  UNL1        0.0862
     43 H          63.7333   79.1517   12.1621 H       1  UNL1        0.1237
     44 O          62.2714   87.1152   17.9999 O.3     1  UNL1       -0.4701
     45 C          62.2990   85.6767   17.5756 C.3     1  UNL1        0.2525
     46 N          62.0633   90.9270    8.4340 N.pl3   1  UNL1       -0.3196
     47 H          62.2312   91.5719    7.7093 H       1  UNL1        0.1481
     48 C          58.8106   91.5900    5.3958 C.ar    1  UNL1        0.0850
     49 C          59.8948   91.3690    6.4085 C.ar    1  UNL1        0.0220
     50 C          59.8491   90.1681    7.3063 C.ar    1  UNL1        0.0505
     51 C          60.9333   89.9471    8.3190 C.ar    1  UNL1        0.1316
     52 N          60.8877   88.7463    9.2167 N.ar    1  UNL1       -0.2092
     53 C          59.7578   87.7666    9.1018 C.ar    1  UNL1        0.2000
     54 N          58.6735   87.9875    8.0890 N.ar    1  UNL1       -0.2238
     55 C          58.7192   89.1883    7.1913 C.ar    1  UNL1        0.0888
     56 C          57.6350   89.4093    6.1786 C.ar    1  UNL1        0.0574
     57 C          57.6806   90.6101    5.2808 C.ar    1  UNL1        0.1535
     58 C          60.0004   92.9716    3.5450 C.2     1  UNL1        0.2443
     59 O          61.0988   91.9516    3.4896 O.2     1  UNL1       -0.2730
     60 N          58.8563   92.7908    4.4981 N.am    1  UNL1       -0.2802
     61 H          58.1353   93.4602    4.5344 H       1  UNL1        0.1550
     62 C          59.7289   92.9467    0.2930 C.2     1  UNL1        0.2438
     63 O          59.6453   91.5878    0.9226 O.2     1  UNL1       -0.2731
     64 N          59.9212   94.1609    1.1524 N.am    1  UNL1       -0.2717
     65 C          60.0225   95.5770    0.6680 C.3     1  UNL1        0.0939
     66 C          60.2099   96.4636    1.8634 C.3     1  UNL1        0.0237
     67 C          60.2244   95.5955    3.0866 C.3     1  UNL1        0.0310
     68 C          60.0460   94.1724    2.6472 C.3     1  UNL1        0.1521
     69 C          59.6202   93.0914   -1.1960 C.3     1  UNL1        0.1487
     70 C          58.2758   93.0348   -1.8589 C.3     1  UNL1        0.0250
     71 C          57.6160   92.9571   -0.5140 C.3     1  UNL1        0.0021
     72 C          58.9356   93.1124   -3.2037 C.3     1  UNL1        0.0021
     73 C          56.9314   92.9782   -2.5217 C.3     1  UNL1        0.0021
     74 C          62.2074   93.2482   -1.3731 C.2     1  UNL1        0.2370
     75 O          62.3233   93.0025    0.1020 O.2     1  UNL1       -0.2737
     76 N          60.8559   93.2926   -2.0222 N.am    1  UNL1       -0.2973
     77 H          60.7799   93.4539   -2.9904 H       1  UNL1        0.1499
     78 C          63.4432   93.4495   -2.1993 C.3     1  UNL1        0.1316
     79 C          63.5787   92.7627   -3.5259 C.3     1  UNL1        0.0270
     80 C          64.2109   95.6025   -0.9644 C.3     1  UNL1        0.0862
     81 N          64.5435   94.3375   -1.6987 N.3     1  UNL1       -0.2902
     82 H          65.1141   93.7731   -1.0693 H       1  UNL1        0.1237
     83 O          56.5964   90.8311    4.2681 O.3     1  UNL1       -0.4701
     84 C          55.3837   91.6357    4.6312 C.3     1  UNL1        0.2525
@<TRIPOS>BOND
     1    80    81    1
     2    81    78    1
     3    78    79    1
     4    78    74    1
     5    74    75    2
     6    74    76   am
     7    69    76    1
     8    69    62    1
     9    62    63    2
    10    62    64   am
    11    64    65    1
    12    65    66    1
    13    66    67    1
    14    67    68    1
    15    68    58    1
    16    58    59    2
    17    58    60   am
    18    60    48    1
    19    48    49   ar
    20    49    50   ar
    21    50    51   ar
    22    51    46    1
    23     1    46    1
    24     1     2    1
    25     2     3    1
    26     3     4    1
    27     4     7    1
    28     7     9    1
    29     9    10   ar
    30    10    11   ar
    31    11    12   ar
    32    12    13   ar
    33    13    14   ar
    34    14    15   ar
    35    15    44    1
    36    44    45    1
    37    15    16   ar
    38    16    19    1
    39    19    20   am
    40    20    21    2
    41    23    20    1
    42    23    24    1
    43    24    25    1
    44    25    26    1
    45    26    27    1
    46    27    28   am
    47    28    29    2
    48    28    30    1
    49    30    35    1
    50    35    36   am
    51    36    37    2
    52    36    39    1
    53    39    40    1
    54    39    41    1
    55    41    42    1
    56    30    31    1
    57    31    32    1
    58    31    33    1
    59    31    34    1
    60    16    17   ar
    61    17    18   ar
    62     4     5    1
    63     5     6    1
    64    51    52   ar
    65    52    53   ar
    66    53    54   ar
    67    54    55   ar
    68    55    56   ar
    69    56    57   ar
    70    57    83    1
    71    83    84    1
    72    69    70    1
    73    70    71    1
    74    70    72    1
    75    70    73    1
    76    68    64    1
    77    57    48   ar
    78    55    50   ar
    79     6     1    1
    80    18     9   ar
    81    18    13   ar
    82    27    23    1
    83    81    82    1
    84    76    77    1
    85    60    61    1
    86    46    47    1
    87     7     8    1
    88    19    22    1
    89    35    38    1
    90    41    43    1
