@<TRIPOS>MOLECULE
*****
 35 39 0 0 0
SMALL
GASTEIGER

@<TRIPOS>ATOM
      1 C          61.8737   88.2928   10.8800 C.3     1  UNL1        0.0933
      2 C          61.9786   89.4624    9.9466 C.3     1  UNL1        0.0442
      3 C          61.0866   89.5440    8.7433 C.3     1  UNL1        0.0953
      4 N          60.0899   88.4560    8.4735 N.am    1  UNL1       -0.2794
      5 C          59.1979   88.5376    7.2702 C.2     1  UNL1        0.2252
      6 O          58.2012   87.4496    7.0004 O.2     1  UNL1       -0.2749
      7 C          59.9851   87.2865    9.4069 C.3     1  UNL1        0.0953
      8 C          60.8770   87.2050   10.6101 C.3     1  UNL1        0.0442
      9 N          64.0297   87.3443   13.9650 N.ar    1  UNL1       -0.2799
     10 C          63.1144   86.9636   12.8393 C.ar    1  UNL1        0.3315
     11 O          62.6325   85.5783   12.5248 O.2     1  UNL1       -0.2463
     12 N          62.7657   88.2113   12.0833 N.ar    1  UNL1       -0.2817
     13 C          63.4654   89.3632   12.7417 C.ar    1  UNL1        0.0796
     14 C          63.4922   90.8307   12.4325 C.ar    1  UNL1        0.0188
     15 C          64.3002   91.7624   13.2863 C.ar    1  UNL1        0.0016
     16 C          65.0814   91.2266   14.4493 C.ar    1  UNL1        0.0016
     17 C          65.0547   89.7591   14.7585 C.ar    1  UNL1        0.0188
     18 C          64.2467   88.8274   13.9047 C.ar    1  UNL1        0.0797
     19 C          64.6238   86.4067   14.9739 C.3     1  UNL1        0.1105
     20 C          63.4651   84.1710   15.6135 C.3     1  UNL1        0.0020
     21 C          63.7290   85.6221   15.8868 C.3     1  UNL1        0.0228
     22 C          63.0978   86.2886   17.0733 C.3     1  UNL1        0.0020
     23 C          59.3028   89.7071    6.3369 C.3     1  UNL1        0.0795
     24 C          60.6319   90.0831    5.7520 C.3     1  UNL1        0.0264
     25 C          60.7367   91.2528    4.8186 C.3     1  UNL1        0.0729
     26 N          59.5124   92.0463    4.4702 N.3     1  UNL1       -0.2689
     27 C          58.1833   91.6703    5.0550 C.3     1  UNL1        0.0729
     28 C          58.0785   90.5007    5.9884 C.3     1  UNL1        0.0264
     29 C          59.6173   93.2158    3.5368 C.3     1  UNL1        0.0992
     30 C          60.2187   93.0366    2.1744 C.ar    1  UNL1       -0.0031
     31 C          61.6999   93.1775    1.9840 C.ar    1  UNL1        0.0178
     32 C          62.3013   92.9983    0.6216 C.ar    1  UNL1        0.0986
     33 N          61.4215   92.6782   -0.5504 N.ar    1  UNL1       -0.2423
     34 C          59.9404   92.5373   -0.3600 C.ar    1  UNL1        0.0986
     35 C          59.3389   92.7165    1.0025 C.ar    1  UNL1        0.0178
@<TRIPOS>BOND
     1    20    21    1
     2    21    22    1
     3    21    19    1
     4    19     9    1
     5     9    10   ar
     6    10    11    2
     7    10    12   ar
     8    12     1    1
     9     1     2    1
    10     2     3    1
    11     3     4    1
    12     4     5   am
    13     5     6    2
    14     5    23    1
    15    23    24    1
    16    24    25    1
    17    25    26    1
    18    26    29    1
    19    29    30    1
    20    30    31   ar
    21    31    32   ar
    22    32    33   ar
    23    33    34   ar
    24    34    35   ar
    25    26    27    1
    26    27    28    1
    27     4     7    1
    28     7     8    1
    29    12    13   ar
    30    13    14   ar
    31    14    15   ar
    32    15    16   ar
    33    16    17   ar
    34    17    18   ar
    35    18     9   ar
    36     8     1    1
    37    18    13   ar
    38    28    23    1
    39    35    30   ar
@<TRIPOS>MOLECULE
*****
 35 39 0 0 0
SMALL
GASTEIGER

@<TRIPOS>ATOM
      1 C          61.9690   88.7903   10.9582 C.3     1  UNL1        0.0933
      2 C          61.9896   89.9093    9.9593 C.3     1  UNL1        0.0442
      3 C          61.0963   89.8565    8.7554 C.3     1  UNL1        0.0953
      4 N          60.1824   88.6848    8.5504 N.am    1  UNL1       -0.2794
      5 C          59.2891   88.6321    7.3466 C.2     1  UNL1        0.2252
      6 O          58.3752   87.4604    7.1416 O.2     1  UNL1       -0.2749
      7 C          60.1618   87.5660    9.5493 C.3     1  UNL1        0.0953
      8 C          61.0551   87.6188   10.7531 C.3     1  UNL1        0.0442
      9 N          64.2523   89.6728   13.9703 N.ar    1  UNL1       -0.2799
     10 C          63.4122   90.0853   12.7981 C.ar    1  UNL1        0.3315
     11 O          63.1654   91.4928   12.3420 O.2     1  UNL1       -0.2463
     12 N          62.8623   88.8431   12.1621 N.ar    1  UNL1       -0.2817
     13 C          63.3624   87.6629   12.9412 C.ar    1  UNL1        0.0796
     14 C          63.1466   86.1876   12.7774 C.ar    1  UNL1        0.0188
     15 C          63.7899   85.2251   13.7312 C.ar    1  UNL1        0.0016
     16 C          64.6489   85.7379   14.8488 C.ar    1  UNL1        0.0016
     17 C          64.8648   87.2132   15.0126 C.ar    1  UNL1        0.0188
     18 C          64.2215   88.1757   14.0588 C.ar    1  UNL1        0.0797
     19 C          64.9930   90.5954   14.8923 C.3     1  UNL1        0.1105
     20 C          66.1440   92.0158   13.0462 C.3     1  UNL1        0.0020
     21 C          66.1851   91.3566   14.3930 C.3     1  UNL1        0.0228
     22 C          67.4186   91.4588   15.2406 C.3     1  UNL1        0.0020
     23 C          59.3098   89.7510    6.3478 C.3     1  UNL1        0.0795
     24 C          58.0377   90.4608    5.9902 C.3     1  UNL1        0.0264
     25 C          58.0585   91.5797    4.9913 C.3     1  UNL1        0.0729
     26 N          59.3513   91.9888    4.3501 N.3     1  UNL1       -0.2689
     27 C          60.6234   91.2790    4.7077 C.3     1  UNL1        0.0729
     28 C          60.6027   90.1601    5.7065 C.3     1  UNL1        0.0264
     29 C          59.3720   93.1077    3.3513 C.3     1  UNL1        0.0992
     30 C          60.1666   92.9696    2.0866 C.ar    1  UNL1       -0.0031
     31 C          59.4719   92.6545    0.7950 C.ar    1  UNL1        0.0178
     32 C          60.2665   92.5164   -0.4697 C.ar    1  UNL1        0.0986
     33 N          61.7558   92.6933   -0.4428 N.ar    1  UNL1       -0.2423
     34 C          62.4505   93.0084    0.8488 C.ar    1  UNL1        0.0986
     35 C          61.6559   93.1465    2.1135 C.ar    1  UNL1        0.0178
@<TRIPOS>BOND
     1    20    21    1
     2    21    22    1
     3    21    19    1
     4    19     9    1
     5     9    10   ar
     6    10    11    2
     7    10    12   ar
     8    12     1    1
     9     1     2    1
    10     2     3    1
    11     3     4    1
    12     4     5   am
    13     5     6    2
    14     5    23    1
    15    23    24    1
    16    24    25    1
    17    25    26    1
    18    26    29    1
    19    29    30    1
    20    30    31   ar
    21    31    32   ar
    22    32    33   ar
    23    33    34   ar
    24    34    35   ar
    25    26    27    1
    26    27    28    1
    27     4     7    1
    28     7     8    1
    29    12    13   ar
    30    13    14   ar
    31    14    15   ar
    32    15    16   ar
    33    16    17   ar
    34    17    18   ar
    35    18     9   ar
    36     8     1    1
    37    18    13   ar
    38    28    23    1
    39    35    30   ar
@<TRIPOS>MOLECULE
*****
 35 39 0 0 0
SMALL
GASTEIGER

@<TRIPOS>ATOM
      1 C          61.1399   92.3423    2.8035 C.3     1  UNL1        0.0933
      2 C          61.7330   91.4869    3.8837 C.3     1  UNL1        0.0442
      3 C          60.8472   90.8813    4.9319 C.3     1  UNL1        0.0953
      4 N          59.3685   91.1309    4.8999 N.am    1  UNL1       -0.2794
      5 C          58.4827   90.5253    5.9480 C.2     1  UNL1        0.2252
      6 O          57.0040   90.7749    5.9160 O.2     1  UNL1       -0.2749
      7 C          58.7755   91.9862    3.8197 C.3     1  UNL1        0.0953
      8 C          59.6613   92.5919    2.7715 C.3     1  UNL1        0.0442
      9 N          63.9228   93.9899    0.6573 N.ar    1  UNL1       -0.2799
     10 C          63.4105   93.4820    1.9724 C.ar    1  UNL1        0.3315
     11 O          64.1527   93.5042    3.2757 O.2     1  UNL1       -0.2463
     12 N          62.0257   92.9479    1.7553 N.ar    1  UNL1       -0.2817
     13 C          61.6821   93.1258    0.3061 C.ar    1  UNL1        0.0796
     14 C          60.4531   92.7846   -0.4833 C.ar    1  UNL1        0.0188
     15 C          60.3966   93.0873   -1.9513 C.ar    1  UNL1        0.0016
     16 C          61.5691   93.7314   -2.6299 C.ar    1  UNL1        0.0016
     17 C          62.7981   94.0726   -1.8406 C.ar    1  UNL1        0.0188
     18 C          62.8546   93.7698   -0.3726 C.ar    1  UNL1        0.0797
     19 C          65.2672   94.6093    0.4146 C.3     1  UNL1        0.1105
     20 C          65.0038   96.8268    1.7425 C.3     1  UNL1        0.0020
     21 C          65.4349   96.0971    0.5048 C.3     1  UNL1        0.0228
     22 C          66.0338   96.8554   -0.6426 C.3     1  UNL1        0.0020
     23 C          59.0758   89.6700    7.0282 C.3     1  UNL1        0.0795
     24 C          59.9727   90.2828    8.0625 C.3     1  UNL1        0.0264
     25 C          60.5657   89.4274    9.1427 C.3     1  UNL1        0.0729
     26 N          60.2618   87.9593    9.1885 N.3     1  UNL1       -0.2689
     27 C          59.3649   87.3464    8.1541 C.3     1  UNL1        0.0729
     28 C          58.7719   88.2018    7.0740 C.3     1  UNL1        0.0264
     29 C          60.8549   87.1040   10.2686 C.3     1  UNL1        0.0992
     30 C          61.8335   86.0230    9.9170 C.ar    1  UNL1       -0.0031
     31 C          62.2671   85.8381    8.4929 C.ar    1  UNL1        0.0178
     32 C          63.2457   84.7571    8.1413 C.ar    1  UNL1        0.0986
     33 N          63.7908   83.8610    9.2136 N.ar    1  UNL1       -0.2423
     34 C          63.3572   84.0459   10.6376 C.ar    1  UNL1        0.0986
     35 C          62.3786   85.1269   10.9893 C.ar    1  UNL1        0.0178
@<TRIPOS>BOND
     1    20    21    1
     2    21    22    1
     3    21    19    1
     4    19     9    1
     5     9    10   ar
     6    10    11    2
     7    10    12   ar
     8    12     1    1
     9     1     2    1
    10     2     3    1
    11     3     4    1
    12     4     5   am
    13     5     6    2
    14     5    23    1
    15    23    24    1
    16    24    25    1
    17    25    26    1
    18    26    29    1
    19    29    30    1
    20    30    31   ar
    21    31    32   ar
    22    32    33   ar
    23    33    34   ar
    24    34    35   ar
    25    26    27    1
    26    27    28    1
    27     4     7    1
    28     7     8    1
    29    12    13   ar
    30    13    14   ar
    31    14    15   ar
    32    15    16   ar
    33    16    17   ar
    34    17    18   ar
    35    18     9   ar
    36     8     1    1
    37    18    13   ar
    38    28    23    1
    39    35    30   ar
@<TRIPOS>MOLECULE
*****
 35 39 0 0 0
SMALL
GASTEIGER

@<TRIPOS>ATOM
      1 C          60.8252   92.5148    3.1435 C.3     1  UNL1        0.0933
      2 C          61.5377   91.5442    4.0382 C.3     1  UNL1        0.0442
      3 C          60.7637   90.7434    5.0431 C.3     1  UNL1        0.0953
      4 N          59.2774   90.9131    5.1532 N.am    1  UNL1       -0.2794
      5 C          58.5035   90.1123    6.1581 C.2     1  UNL1        0.2252
      6 O          57.0172   90.2821    6.2682 O.2     1  UNL1       -0.2749
      7 C          58.5651   91.8837    4.2585 C.3     1  UNL1        0.0953
      8 C          59.3390   92.6845    3.2537 C.3     1  UNL1        0.0442
      9 N          63.4325   94.3141    0.9007 N.ar    1  UNL1       -0.2799
     10 C          63.0935   93.4079    2.0470 C.ar    1  UNL1        0.3315
     11 O          64.0763   92.7156    2.9441 O.2     1  UNL1       -0.2463
     12 N          61.5992   93.3156    2.1386 N.ar    1  UNL1       -0.2817
     13 C          61.0146   94.1647    1.0490 C.ar    1  UNL1        0.0796
     14 C          59.5969   94.4557    0.6546 C.ar    1  UNL1        0.0188
     15 C          59.3124   95.3638   -0.5048 C.ar    1  UNL1        0.0016
     16 C          60.4454   95.9809   -1.2699 C.ar    1  UNL1        0.0016
     17 C          61.8631   95.6899   -0.8755 C.ar    1  UNL1        0.0188
     18 C          62.1476   94.7818    0.2839 C.ar    1  UNL1        0.0797
     19 C          64.8138   94.6870    0.4502 C.3     1  UNL1        0.1105
     20 C          65.1584   96.7416    2.0027 C.3     1  UNL1        0.0020
     21 C          65.3219   96.0817    0.6655 C.3     1  UNL1        0.0228
     22 C          65.9937   96.8168   -0.4563 C.3     1  UNL1        0.0020
     23 C          59.2159   89.1418    7.0528 C.3     1  UNL1        0.0795
     24 C          60.0264   89.6447    8.2104 C.3     1  UNL1        0.0264
     25 C          60.7389   88.6740    9.1051 C.3     1  UNL1        0.0729
     26 N          60.6408   87.2005    8.8421 N.3     1  UNL1       -0.2689
     27 C          59.8303   86.6976    7.6844 C.3     1  UNL1        0.0729
     28 C          59.1179   87.6682    6.7898 C.3     1  UNL1        0.0264
     29 C          61.3532   86.2300    9.7368 C.3     1  UNL1        0.0992
     30 C          62.1278   86.7300   10.9199 C.ar    1  UNL1       -0.0031
     31 C          62.3871   88.1987   11.0803 C.ar    1  UNL1        0.0178
     32 C          63.1617   88.6988   12.2635 C.ar    1  UNL1        0.0986
     33 N          63.6769   87.7302   13.2863 N.ar    1  UNL1       -0.2423
     34 C          63.4176   86.2615   13.1260 C.ar    1  UNL1        0.0986
     35 C          62.6430   85.7614   11.9428 C.ar    1  UNL1        0.0178
@<TRIPOS>BOND
     1    20    21    1
     2    21    22    1
     3    21    19    1
     4    19     9    1
     5     9    10   ar
     6    10    11    2
     7    10    12   ar
     8    12     1    1
     9     1     2    1
    10     2     3    1
    11     3     4    1
    12     4     5   am
    13     5     6    2
    14     5    23    1
    15    23    24    1
    16    24    25    1
    17    25    26    1
    18    26    29    1
    19    29    30    1
    20    30    31   ar
    21    31    32   ar
    22    32    33   ar
    23    33    34   ar
    24    34    35   ar
    25    26    27    1
    26    27    28    1
    27     4     7    1
    28     7     8    1
    29    12    13   ar
    30    13    14   ar
    31    14    15   ar
    32    15    16   ar
    33    16    17   ar
    34    17    18   ar
    35    18     9   ar
    36     8     1    1
    37    18    13   ar
    38    28    23    1
    39    35    30   ar
@<TRIPOS>MOLECULE
*****
 35 39 0 0 0
SMALL
GASTEIGER

@<TRIPOS>ATOM
      1 C          60.7318   92.4468    3.2686 C.3     1  UNL1        0.0933
      2 C          61.4316   91.6839    4.3542 C.3     1  UNL1        0.0442
      3 C          60.6339   90.9005    5.3542 C.3     1  UNL1        0.0953
      4 N          59.1365   90.8799    5.2685 N.am    1  UNL1       -0.2794
      5 C          58.3387   90.0964    6.2685 C.2     1  UNL1        0.2252
      6 O          56.8413   90.0758    6.1828 O.2     1  UNL1       -0.2749
      7 C          58.4368   91.6427    4.1830 C.3     1  UNL1        0.0953
      8 C          59.2345   92.4262    3.1830 C.3     1  UNL1        0.0442
      9 N          63.3368   93.9701    0.8275 N.ar    1  UNL1       -0.2799
     10 C          62.9364   92.9372    1.8388 C.ar    1  UNL1        0.3315
     11 O          63.7926   91.8091    2.3333 O.2     1  UNL1       -0.2463
     12 N          61.5296   93.2303    2.2687 N.ar    1  UNL1       -0.2817
     13 C          61.0604   94.4444    1.5231 C.ar    1  UNL1        0.0796
     14 C          59.7605   95.1926    1.5402 C.ar    1  UNL1        0.0188
     15 C          59.5775   96.3981    0.6666 C.ar    1  UNL1        0.0016
     16 C          60.6945   96.8554   -0.2241 C.ar    1  UNL1        0.0016
     17 C          61.9944   96.1071   -0.2412 C.ar    1  UNL1        0.0188
     18 C          62.1774   94.9016    0.6324 C.ar    1  UNL1        0.0797
     19 C          64.6636   94.0565    0.1332 C.3     1  UNL1        0.1105
     20 C          65.5505   96.2782   -0.8804 C.3     1  UNL1        0.0020
     21 C          64.8360   94.9695   -1.0443 C.3     1  UNL1        0.0228
     22 C          64.2938   94.5739   -2.3858 C.3     1  UNL1        0.0020
     23 C          59.0385   89.3336    7.3540 C.3     1  UNL1        0.0795
     24 C          58.9938   87.8343    7.3656 C.3     1  UNL1        0.0264
     25 C          59.6936   87.0715    8.4513 C.3     1  UNL1        0.0729
     26 N          60.4381   87.8080    9.5252 N.3     1  UNL1       -0.2689
     27 C          60.4828   89.3073    9.5135 C.3     1  UNL1        0.0729
     28 C          59.7830   90.0700    8.4279 C.3     1  UNL1        0.0264
     29 C          61.1379   87.0452   10.6107 C.3     1  UNL1        0.0992
     30 C          62.0346   85.8948   10.2607 C.ar    1  UNL1       -0.0031
     31 C          62.3945   84.8797   11.3047 C.ar    1  UNL1        0.0178
     32 C          63.2912   83.7294   10.9547 C.ar    1  UNL1        0.0986
     33 N          63.8280   83.5941    9.5606 N.ar    1  UNL1       -0.2423
     34 C          63.4681   84.6091    8.5165 C.ar    1  UNL1        0.0986
     35 C          62.5714   85.7595    8.8666 C.ar    1  UNL1        0.0178
@<TRIPOS>BOND
     1    20    21    1
     2    21    22    1
     3    21    19    1
     4    19     9    1
     5     9    10   ar
     6    10    11    2
     7    10    12   ar
     8    12     1    1
     9     1     2    1
    10     2     3    1
    11     3     4    1
    12     4     5   am
    13     5     6    2
    14     5    23    1
    15    23    24    1
    16    24    25    1
    17    25    26    1
    18    26    29    1
    19    29    30    1
    20    30    31   ar
    21    31    32   ar
    22    32    33   ar
    23    33    34   ar
    24    34    35   ar
    25    26    27    1
    26    27    28    1
    27     4     7    1
    28     7     8    1
    29    12    13   ar
    30    13    14   ar
    31    14    15   ar
    32    15    16   ar
    33    16    17   ar
    34    17    18   ar
    35    18     9   ar
    36     8     1    1
    37    18    13   ar
    38    28    23    1
    39    35    30   ar
@<TRIPOS>MOLECULE
*****
 35 39 0 0 0
SMALL
GASTEIGER

@<TRIPOS>ATOM
      1 C          59.6476   93.3599   -1.9070 C.3     1  UNL1        0.0933
      2 C          58.9272   92.6402   -0.8055 C.3     1  UNL1        0.0442
      3 C          59.5637   92.5092    0.5465 C.3     1  UNL1        0.0953
      4 N          60.9204   93.0978    0.7969 N.am    1  UNL1       -0.2794
      5 C          61.5569   92.9668    2.1489 C.2     1  UNL1        0.2252
      6 O          62.9137   93.5554    2.3993 O.2     1  UNL1       -0.2749
      7 C          61.6407   93.8174   -0.3046 C.3     1  UNL1        0.0953
      8 C          61.0043   93.9484   -1.6565 C.3     1  UNL1        0.0442
      9 N          57.4287   93.3218   -5.0914 N.ar    1  UNL1       -0.2799
     10 C          57.6614   92.9680   -3.6524 C.ar    1  UNL1        0.3315
     11 O          56.7111   92.2223   -2.7631 O.2     1  UNL1       -0.2463
     12 N          59.0111   93.4909   -3.2590 N.ar    1  UNL1       -0.2817
     13 C          59.6126   94.1678   -4.4548 C.ar    1  UNL1        0.0796
     14 C          60.9245   94.8659   -4.6587 C.ar    1  UNL1        0.0188
     15 C          61.2585   95.4594   -5.9951 C.ar    1  UNL1        0.0016
     16 C          60.2805   95.3549   -7.1277 C.ar    1  UNL1        0.0016
     17 C          58.9686   94.6568   -6.9238 C.ar    1  UNL1        0.0188
     18 C          58.6347   94.0633   -5.5873 C.ar    1  UNL1        0.0797
     19 C          56.2050   92.9920   -5.8938 C.3     1  UNL1        0.1105
     20 C          57.1986   91.2393   -7.5342 C.3     1  UNL1        0.0020
     21 C          56.1059   91.6741   -6.6030 C.3     1  UNL1        0.0228
     22 C          54.9140   90.7907   -6.3812 C.3     1  UNL1        0.0020
     23 C          60.8366   92.2471    3.2503 C.3     1  UNL1        0.0795
     24 C          59.3995   92.5652    3.5397 C.3     1  UNL1        0.0264
     25 C          58.6792   91.8455    4.6413 C.3     1  UNL1        0.0729
     26 N          59.3959   90.8077    5.4533 N.3     1  UNL1       -0.2689
     27 C          60.8329   90.4896    5.1638 C.3     1  UNL1        0.0729
     28 C          61.5532   91.2093    4.0624 C.3     1  UNL1        0.0264
     29 C          58.6756   90.0881    6.5547 C.3     1  UNL1        0.0992
     30 C          59.4003   89.0713    7.3858 C.ar    1  UNL1       -0.0031
     31 C          59.2819   87.6124    7.0577 C.ar    1  UNL1        0.0178
     32 C          60.0067   86.5955    7.8888 C.ar    1  UNL1        0.0986
     33 N          60.8498   87.0376    9.0480 N.ar    1  UNL1       -0.2423
     34 C          60.9682   88.4964    9.3760 C.ar    1  UNL1        0.0986
     35 C          60.2435   89.5133    8.5449 C.ar    1  UNL1        0.0178
@<TRIPOS>BOND
     1    20    21    1
     2    21    22    1
     3    21    19    1
     4    19     9    1
     5     9    10   ar
     6    10    11    2
     7    10    12   ar
     8    12     1    1
     9     1     2    1
    10     2     3    1
    11     3     4    1
    12     4     5   am
    13     5     6    2
    14     5    23    1
    15    23    24    1
    16    24    25    1
    17    25    26    1
    18    26    29    1
    19    29    30    1
    20    30    31   ar
    21    31    32   ar
    22    32    33   ar
    23    33    34   ar
    24    34    35   ar
    25    26    27    1
    26    27    28    1
    27     4     7    1
    28     7     8    1
    29    12    13   ar
    30    13    14   ar
    31    14    15   ar
    32    15    16   ar
    33    16    17   ar
    34    17    18   ar
    35    18     9   ar
    36     8     1    1
    37    18    13   ar
    38    28    23    1
    39    35    30   ar
@<TRIPOS>MOLECULE
*****
 35 39 0 0 0
SMALL
GASTEIGER

@<TRIPOS>ATOM
      1 C          58.8291   94.1227   -1.2132 C.3     1  UNL1        0.0933
      2 C          58.1889   93.2838   -0.1470 C.3     1  UNL1        0.0442
      3 C          58.9596   92.9252    1.0889 C.3     1  UNL1        0.0953
      4 N          60.3705   93.4055    1.2587 N.am    1  UNL1       -0.2794
      5 C          61.1412   93.0469    2.4946 C.2     1  UNL1        0.2252
      6 O          62.5520   93.5272    2.6644 O.2     1  UNL1       -0.2749
      7 C          61.0106   94.2443    0.1926 C.3     1  UNL1        0.0953
      8 C          60.2399   94.6029   -1.0433 C.3     1  UNL1        0.0442
      9 N          57.4681   94.8603   -4.7725 N.ar    1  UNL1       -0.2799
     10 C          58.5693   94.4125   -3.8577 C.ar    1  UNL1        0.3315
     11 O          59.9406   93.9731   -4.2778 O.2     1  UNL1       -0.2463
     12 N          58.0584   94.4813   -2.4491 N.ar    1  UNL1       -0.2817
     13 C          56.6415   94.9716   -2.4933 C.ar    1  UNL1        0.0796
     14 C          55.6364   95.2350   -1.4115 C.ar    1  UNL1        0.0188
     15 C          54.2664   95.7326   -1.7657 C.ar    1  UNL1        0.0016
     16 C          53.9016   95.9669   -3.2017 C.ar    1  UNL1        0.0016
     17 C          54.9067   95.7035   -4.2835 C.ar    1  UNL1        0.0188
     18 C          56.2767   95.2058   -3.9293 C.ar    1  UNL1        0.0797
     19 C          57.5449   94.9473   -6.2680 C.3     1  UNL1        0.1105
     20 C          57.5647   92.5678   -7.3109 C.3     1  UNL1        0.0020
     21 C          58.2493   93.8760   -7.0465 C.3     1  UNL1        0.0228
     22 C          59.6384   94.1129   -7.5607 C.3     1  UNL1        0.0020
     23 C          60.5010   92.2081    3.5606 C.3     1  UNL1        0.0795
     24 C          61.3134   91.1870    4.3004 C.3     1  UNL1        0.0264
     25 C          60.6730   90.3481    5.3665 C.3     1  UNL1        0.0729
     26 N          59.2203   90.5305    5.6927 N.3     1  UNL1       -0.2689
     27 C          58.4079   91.5516    4.9529 C.3     1  UNL1        0.0729
     28 C          59.0483   92.3904    3.8869 C.3     1  UNL1        0.0264
     29 C          58.5801   89.6917    6.7588 C.3     1  UNL1        0.0992
     30 C          59.4150   88.7490    7.5738 C.ar    1  UNL1       -0.0031
     31 C          59.3872   87.2781    7.2814 C.ar    1  UNL1        0.0178
     32 C          60.2221   86.3354    8.0964 C.ar    1  UNL1        0.0986
     33 N          61.0848   86.8637    9.2039 N.ar    1  UNL1       -0.2423
     34 C          61.1127   88.3347    9.4964 C.ar    1  UNL1        0.0986
     35 C          60.2778   89.2773    8.6813 C.ar    1  UNL1        0.0178
@<TRIPOS>BOND
     1    20    21    1
     2    21    22    1
     3    21    19    1
     4    19     9    1
     5     9    10   ar
     6    10    11    2
     7    10    12   ar
     8    12     1    1
     9     1     2    1
    10     2     3    1
    11     3     4    1
    12     4     5   am
    13     5     6    2
    14     5    23    1
    15    23    24    1
    16    24    25    1
    17    25    26    1
    18    26    29    1
    19    29    30    1
    20    30    31   ar
    21    31    32   ar
    22    32    33   ar
    23    33    34   ar
    24    34    35   ar
    25    26    27    1
    26    27    28    1
    27     4     7    1
    28     7     8    1
    29    12    13   ar
    30    13    14   ar
    31    14    15   ar
    32    15    16   ar
    33    16    17   ar
    34    17    18   ar
    35    18     9   ar
    36     8     1    1
    37    18    13   ar
    38    28    23    1
    39    35    30   ar
@<TRIPOS>MOLECULE
*****
 35 39 0 0 0
SMALL
GASTEIGER

@<TRIPOS>ATOM
      1 C          61.2068   92.4396    2.6479 C.3     1  UNL1        0.0933
      2 C          61.8142   91.6182    3.7464 C.3     1  UNL1        0.0442
      3 C          60.9383   91.0172    4.8055 C.3     1  UNL1        0.0953
      4 N          59.4551   91.2375    4.7662 N.am    1  UNL1       -0.2794
      5 C          58.5793   90.6365    5.8253 C.2     1  UNL1        0.2252
      6 O          57.0961   90.8569    5.7860 O.2     1  UNL1       -0.2749
      7 C          58.8478   92.0588    3.6677 C.3     1  UNL1        0.0953
      8 C          59.7236   92.6598    2.6086 C.3     1  UNL1        0.0442
      9 N          63.0451   93.5972   -0.5686 N.ar    1  UNL1       -0.2799
     10 C          61.9739   92.7980    0.1125 C.ar    1  UNL1        0.3315
     11 O          60.9702   91.9119   -0.5639 O.2     1  UNL1       -0.2463
     12 N          62.0826   93.0405    1.5888 N.ar    1  UNL1       -0.2817
     13 C          63.2210   93.9896    1.8200 C.ar    1  UNL1        0.0796
     14 C          63.7928   94.5849    3.0725 C.ar    1  UNL1        0.0188
     15 C          64.9594   95.5243    2.9915 C.ar    1  UNL1        0.0016
     16 C          65.5542   95.8683    1.6582 C.ar    1  UNL1        0.0016
     17 C          64.9824   95.2730    0.4057 C.ar    1  UNL1        0.0188
     18 C          63.8158   94.3336    0.4867 C.ar    1  UNL1        0.0797
     19 C          63.3006   93.6506   -2.0457 C.3     1  UNL1        0.1105
     20 C          62.9363   95.9820   -3.1328 C.3     1  UNL1        0.0020
     21 C          62.4906   94.5665   -2.9144 C.3     1  UNL1        0.0228
     22 C          61.2346   94.0669   -3.5649 C.3     1  UNL1        0.0020
     23 C          59.1867   89.8153    6.9236 C.3     1  UNL1        0.0795
     24 C          60.0389   90.4728    7.9684 C.3     1  UNL1        0.0264
     25 C          60.6463   89.6514    9.0668 C.3     1  UNL1        0.0729
     26 N          60.4016   88.1725    9.1204 N.3     1  UNL1       -0.2689
     27 C          59.5494   87.5149    8.0757 C.3     1  UNL1        0.0729
     28 C          58.9420   88.3363    6.9774 C.3     1  UNL1        0.0264
     29 C          61.0090   87.3512   10.2188 C.3     1  UNL1        0.0992
     30 C          61.8957   86.1887    9.8835 C.ar    1  UNL1       -0.0031
     31 C          62.3165   85.2317   10.9592 C.ar    1  UNL1        0.0178
     32 C          63.2032   84.0692   10.6239 C.ar    1  UNL1        0.0986
     33 N          63.6691   83.8638    9.2130 N.ar    1  UNL1       -0.2423
     34 C          63.2482   84.8208    8.1373 C.ar    1  UNL1        0.0986
     35 C          62.3616   85.9833    8.4726 C.ar    1  UNL1        0.0178
@<TRIPOS>BOND
     1    20    21    1
     2    21    22    1
     3    21    19    1
     4    19     9    1
     5     9    10   ar
     6    10    11    2
     7    10    12   ar
     8    12     1    1
     9     1     2    1
    10     2     3    1
    11     3     4    1
    12     4     5   am
    13     5     6    2
    14     5    23    1
    15    23    24    1
    16    24    25    1
    17    25    26    1
    18    26    29    1
    19    29    30    1
    20    30    31   ar
    21    31    32   ar
    22    32    33   ar
    23    33    34   ar
    24    34    35   ar
    25    26    27    1
    26    27    28    1
    27     4     7    1
    28     7     8    1
    29    12    13   ar
    30    13    14   ar
    31    14    15   ar
    32    15    16   ar
    33    16    17   ar
    34    17    18   ar
    35    18     9   ar
    36     8     1    1
    37    18    13   ar
    38    28    23    1
    39    35    30   ar
@<TRIPOS>MOLECULE
*****
 35 39 0 0 0
SMALL
GASTEIGER

@<TRIPOS>ATOM
      1 C          59.7910   94.5257   -1.3738 C.3     1  UNL1        0.0933
      2 C          59.0117   93.7451   -0.3571 C.3     1  UNL1        0.0442
      3 C          59.6855   93.2560    0.8906 C.3     1  UNL1        0.0953
      4 N          61.1386   93.5475    1.1217 N.am    1  UNL1       -0.2794
      5 C          61.8125   93.0584    2.3694 C.2     1  UNL1        0.2252
      6 O          63.2656   93.3499    2.6005 O.2     1  UNL1       -0.2749
      7 C          61.9179   94.3281    0.1051 C.3     1  UNL1        0.0953
      8 C          61.2441   94.8171   -1.1426 C.3     1  UNL1        0.0442
      9 N          57.4837   95.9759   -4.1376 N.ar    1  UNL1       -0.2799
     10 C          57.7559   95.6397   -2.7013 C.ar    1  UNL1        0.3315
     11 O          56.8294   95.8853   -1.5474 O.2     1  UNL1       -0.2463
     12 N          59.1171   95.0148   -2.6215 N.ar    1  UNL1       -0.2817
     13 C          59.6863   94.9647   -4.0084 C.ar    1  UNL1        0.0796
     14 C          60.9934   94.4550   -4.5391 C.ar    1  UNL1        0.0188
     15 C          61.2909   94.5394   -6.0069 C.ar    1  UNL1        0.0016
     16 C          60.2814   95.1334   -6.9439 C.ar    1  UNL1        0.0016
     17 C          58.9743   95.6431   -6.4131 C.ar    1  UNL1        0.0188
     18 C          58.6768   95.5588   -4.9454 C.ar    1  UNL1        0.0797
     19 C          56.2373   96.6168   -4.6722 C.3     1  UNL1        0.1105
     20 C          53.6958   96.1313   -4.4379 C.3     1  UNL1        0.0020
     21 C          55.0406   95.7732   -4.9977 C.3     1  UNL1        0.0228
     22 C          55.1885   94.5714   -5.8831 C.3     1  UNL1        0.0020
     23 C          61.0332   92.2779    3.3859 C.3     1  UNL1        0.0795
     24 C          61.6749   91.1251    4.0995 C.3     1  UNL1        0.0264
     25 C          60.8954   90.3446    5.1161 C.3     1  UNL1        0.0729
     26 N          59.4742   90.7169    5.4190 N.3     1  UNL1       -0.2689
     27 C          58.8325   91.8696    4.7053 C.3     1  UNL1        0.0729
     28 C          59.6120   92.6501    3.6888 C.3     1  UNL1        0.0264
     29 C          58.6949   89.9363    6.4355 C.3     1  UNL1        0.0992
     30 C          59.4023   88.9839    7.3533 C.ar    1  UNL1       -0.0031
     31 C          60.2217   89.5106    8.4941 C.ar    1  UNL1        0.0178
     32 C          60.9291   88.5582    9.4119 C.ar    1  UNL1        0.0986
     33 N          60.8171   87.0791    9.1890 N.ar    1  UNL1       -0.2423
     34 C          59.9978   86.5524    8.0483 C.ar    1  UNL1        0.0986
     35 C          59.2904   87.5048    7.1304 C.ar    1  UNL1        0.0178
@<TRIPOS>BOND
     1    20    21    1
     2    21    22    1
     3    21    19    1
     4    19     9    1
     5     9    10   ar
     6    10    11    2
     7    10    12   ar
     8    12     1    1
     9     1     2    1
    10     2     3    1
    11     3     4    1
    12     4     5   am
    13     5     6    2
    14     5    23    1
    15    23    24    1
    16    24    25    1
    17    25    26    1
    18    26    29    1
    19    29    30    1
    20    30    31   ar
    21    31    32   ar
    22    32    33   ar
    23    33    34   ar
    24    34    35   ar
    25    26    27    1
    26    27    28    1
    27     4     7    1
    28     7     8    1
    29    12    13   ar
    30    13    14   ar
    31    14    15   ar
    32    15    16   ar
    33    16    17   ar
    34    17    18   ar
    35    18     9   ar
    36     8     1    1
    37    18    13   ar
    38    28    23    1
    39    35    30   ar
