@<TRIPOS>MOLECULE
*****
 30 33 0 0 0
SMALL
GASTEIGER

@<TRIPOS>ATOM
      1 N          59.6666   88.4114   10.6661 N.pl3   1  UNL1       -0.3039
      2 H          58.7157   88.2136   10.8269 H       1  UNL1        0.1496
      3 C          60.2650   87.4337    7.8937 C.3     1  UNL1        0.1363
      4 N          60.9408   86.8012    9.0742 N.ar    1  UNL1       -0.2669
      5 C          60.6416   87.2901   10.4604 C.ar    1  UNL1        0.2002
      6 N          61.3173   86.6577   11.6409 N.ar    1  UNL1       -0.2150
      7 C          62.2922   85.5364   11.4352 C.ar    1  UNL1        0.0895
      8 C          62.9679   84.9041   12.6156 C.ar    1  UNL1        0.0307
      9 C          63.9428   83.7828   12.4099 C.ar    1  UNL1        0.0592
     10 CL         64.6186   83.1504   13.5904 Cl      1  UNL1       -0.0822
     11 C          64.2420   83.2940   11.0237 C.ar    1  UNL1        0.0116
     12 C          63.5663   83.9263    9.8432 C.ar    1  UNL1        0.0071
     13 C          62.5914   85.0476   10.0490 C.ar    1  UNL1        0.0740
     14 C          61.9157   85.6800    8.8685 C.ar    1  UNL1        0.2643
     15 O          62.2149   85.1911    7.4823 O.2     1  UNL1       -0.2668
     16 C          60.1405   89.8340   10.6268 C.3     1  UNL1        0.0942
     17 C          61.4974   90.1575   10.0753 C.3     1  UNL1        0.0476
     18 C          62.5992   90.5872   10.9981 C.ar    1  UNL1       -0.0205
     19 C          63.6414   91.5552   10.5221 C.ar    1  UNL1       -0.0041
     20 C          64.7431   91.9850   11.4448 C.ar    1  UNL1        0.0027
     21 C          64.8026   91.4467   12.8436 C.ar    1  UNL1        0.0358
     22 C          63.7603   90.4787   13.3197 C.ar    1  UNL1        0.0027
     23 C          62.6586   90.0490   12.3970 C.ar    1  UNL1       -0.0041
     24 C          65.9043   91.8765   13.7665 C.ar    1  UNL1        0.1624
     25 N          65.5834   92.3141   15.1649 N.ar    1  UNL1       -0.2227
     26 C          66.6850   92.7439   16.0877 C.ar    1  UNL1        0.1317
     27 C          68.1077   92.7360   15.6121 C.ar    1  UNL1        0.1783
     28 F          69.2093   93.1657   16.5350 F       1  UNL1       -0.2009
     29 C          68.4286   92.2983   14.2138 C.ar    1  UNL1        0.1317
     30 N          67.3269   91.8686   13.2909 N.ar    1  UNL1       -0.2227
@<TRIPOS>BOND
     1     3     4    1
     2     4     5   ar
     3     5     1    1
     4     1    16    1
     5    16    17    1
     6    17    18    1
     7    18    19   ar
     8    19    20   ar
     9    20    21   ar
    10    21    24    1
    11    24    25   ar
    12    25    26   ar
    13    26    27   ar
    14    27    28    1
    15    27    29   ar
    16    29    30   ar
    17    21    22   ar
    18    22    23   ar
    19     5     6   ar
    20     6     7   ar
    21     7     8   ar
    22     8     9   ar
    23     9    10    1
    24     9    11   ar
    25    11    12   ar
    26    12    13   ar
    27    13    14   ar
    28    14    15    2
    29    14     4   ar
    30    23    18   ar
    31    13     7   ar
    32    30    24   ar
    33     1     2    1
@<TRIPOS>MOLECULE
*****
 30 33 0 0 0
SMALL
GASTEIGER

@<TRIPOS>ATOM
      1 N          59.6662   88.4472   10.6428 N.pl3   1  UNL1       -0.3039
      2 H          58.7091   88.2604   10.7781 H       1  UNL1        0.1496
      3 C          60.2454   87.4527    7.8724 C.3     1  UNL1        0.1363
      4 N          60.9192   86.8185    9.0531 N.ar    1  UNL1       -0.2669
      5 C          60.6296   87.3158   10.4383 C.ar    1  UNL1        0.2002
      6 N          61.3034   86.6818   11.6189 N.ar    1  UNL1       -0.2150
      7 C          62.2668   85.5503   11.4144 C.ar    1  UNL1        0.0895
      8 C          62.9406   84.9163   12.5951 C.ar    1  UNL1        0.0307
      9 C          63.9039   83.7849   12.3905 C.ar    1  UNL1        0.0592
     10 CL         64.5777   83.1508   13.5712 Cl      1  UNL1       -0.0822
     11 C          64.1936   83.2876   11.0053 C.ar    1  UNL1        0.0116
     12 C          63.5198   83.9217    9.8246 C.ar    1  UNL1        0.0071
     13 C          62.5564   85.0531   10.0292 C.ar    1  UNL1        0.0740
     14 C          61.8826   85.6872    8.8485 C.ar    1  UNL1        0.2643
     15 O          62.1723   85.1899    7.4633 O.2     1  UNL1       -0.2668
     16 C          60.1610   89.8632   10.6412 C.3     1  UNL1        0.0942
     17 C          61.5204   90.1820   10.0932 C.3     1  UNL1        0.0476
     18 C          62.6194   90.6147   11.0179 C.ar    1  UNL1       -0.0205
     19 C          62.6750   90.0803   12.4184 C.ar    1  UNL1       -0.0041
     20 C          63.7739   90.5129   13.3431 C.ar    1  UNL1        0.0027
     21 C          64.8172   91.4799   12.8674 C.ar    1  UNL1        0.0358
     22 C          64.7616   92.0143   11.4669 C.ar    1  UNL1        0.0027
     23 C          63.6627   91.5817   10.5422 C.ar    1  UNL1       -0.0041
     24 C          65.9162   91.9126   13.7921 C.ar    1  UNL1        0.1624
     25 N          67.3396   91.9089   13.3188 N.ar    1  UNL1       -0.2227
     26 C          68.4385   92.3415   14.2435 C.ar    1  UNL1        0.1317
     27 C          68.1142   92.7778   15.6415 C.ar    1  UNL1        0.1783
     28 F          69.2131   93.2105   16.5662 F       1  UNL1       -0.2009
     29 C          66.6908   92.7815   16.1149 C.ar    1  UNL1        0.1317
     30 N          65.5918   92.3488   15.1901 N.ar    1  UNL1       -0.2227
@<TRIPOS>BOND
     1     3     4    1
     2     4     5   ar
     3     5     1    1
     4     1    16    1
     5    16    17    1
     6    17    18    1
     7    18    19   ar
     8    19    20   ar
     9    20    21   ar
    10    21    24    1
    11    24    25   ar
    12    25    26   ar
    13    26    27   ar
    14    27    28    1
    15    27    29   ar
    16    29    30   ar
    17    21    22   ar
    18    22    23   ar
    19     5     6   ar
    20     6     7   ar
    21     7     8   ar
    22     8     9   ar
    23     9    10    1
    24     9    11   ar
    25    11    12   ar
    26    12    13   ar
    27    13    14   ar
    28    14    15    2
    29    14     4   ar
    30    23    18   ar
    31    13     7   ar
    32    30    24   ar
    33     1     2    1
@<TRIPOS>MOLECULE
*****
 30 33 0 0 0
SMALL
GASTEIGER

@<TRIPOS>ATOM
      1 N          62.7395   83.7114   15.1348 N.pl3   1  UNL1       -0.3039
      2 H          63.1216   82.8886   15.5172 H       1  UNL1        0.1496
      3 C          64.3317   81.8610   13.3909 C.3     1  UNL1        0.1363
      4 N          63.6315   83.0427   12.7880 N.ar    1  UNL1       -0.2669
      5 C          62.8355   83.9680   13.6600 C.ar    1  UNL1        0.2002
      6 N          62.1354   85.1496   13.0571 N.ar    1  UNL1       -0.2150
      7 C          62.2313   85.4062   11.5823 C.ar    1  UNL1        0.0895
      8 C          61.5312   86.5878   10.9795 C.ar    1  UNL1        0.0307
      9 C          61.6272   86.8443    9.5047 C.ar    1  UNL1        0.0592
     10 CL         60.9271   88.0260    8.9018 Cl      1  UNL1       -0.0822
     11 C          62.4232   85.9191    8.6328 C.ar    1  UNL1        0.0116
     12 C          63.1233   84.7374    9.2356 C.ar    1  UNL1        0.0071
     13 C          63.0274   84.4809   10.7104 C.ar    1  UNL1        0.0740
     14 C          63.7275   83.2992   11.3133 C.ar    1  UNL1        0.2643
     15 O          64.5236   82.3740   10.4413 O.2     1  UNL1       -0.2668
     16 C          62.0615   84.7085   16.0269 C.3     1  UNL1        0.0942
     17 C          62.8809   85.6653   16.8413 C.3     1  UNL1        0.0476
     18 C          63.3861   86.9350   16.2227 C.ar    1  UNL1       -0.0205
     19 C          64.2754   86.8794   15.0160 C.ar    1  UNL1       -0.0041
     20 C          64.7805   88.1490   14.3974 C.ar    1  UNL1        0.0027
     21 C          64.3964   89.4744   14.9854 C.ar    1  UNL1        0.0358
     22 C          63.5071   89.5300   16.1921 C.ar    1  UNL1        0.0027
     23 C          63.0020   88.2604   16.8107 C.ar    1  UNL1       -0.0041
     24 C          64.9016   90.7441   14.3668 C.ar    1  UNL1        0.1624
     25 N          64.5418   91.0833   12.9507 N.ar    1  UNL1       -0.2227
     26 C          65.0469   92.3530   12.3321 C.ar    1  UNL1        0.1317
     27 C          65.9119   93.2835   13.1296 C.ar    1  UNL1        0.1783
     28 F          66.4170   94.5532   12.5110 F       1  UNL1       -0.2009
     29 C          66.2717   92.9443   14.5457 C.ar    1  UNL1        0.1317
     30 N          65.7665   91.6746   15.1644 N.ar    1  UNL1       -0.2227
@<TRIPOS>BOND
     1     3     4    1
     2     4     5   ar
     3     5     1    1
     4     1    16    1
     5    16    17    1
     6    17    18    1
     7    18    19   ar
     8    19    20   ar
     9    20    21   ar
    10    21    24    1
    11    24    25   ar
    12    25    26   ar
    13    26    27   ar
    14    27    28    1
    15    27    29   ar
    16    29    30   ar
    17    21    22   ar
    18    22    23   ar
    19     5     6   ar
    20     6     7   ar
    21     7     8   ar
    22     8     9   ar
    23     9    10    1
    24     9    11   ar
    25    11    12   ar
    26    12    13   ar
    27    13    14   ar
    28    14    15    2
    29    14     4   ar
    30    23    18   ar
    31    13     7   ar
    32    30    24   ar
    33     1     2    1
@<TRIPOS>MOLECULE
*****
 30 33 0 0 0
SMALL
GASTEIGER

@<TRIPOS>ATOM
      1 N          59.8826   87.6509   10.2798 N.pl3   1  UNL1       -0.3039
      2 H          58.9640   87.3716   10.0621 H       1  UNL1        0.1496
      3 C          60.9776   86.3672    7.7992 C.3     1  UNL1        0.1363
      4 N          61.5207   85.9845    9.1441 N.ar    1  UNL1       -0.2669
      5 C          60.9732   86.6263   10.3844 C.ar    1  UNL1        0.2002
      6 N          61.5163   86.2436   11.7292 N.ar    1  UNL1       -0.2150
      7 C          62.6069   85.2190   11.8338 C.ar    1  UNL1        0.0895
      8 C          63.1499   84.8362   13.1786 C.ar    1  UNL1        0.0307
      9 C          64.2404   83.8117   13.2831 C.ar    1  UNL1        0.0592
     10 CL         64.7835   83.4289   14.6280 Cl      1  UNL1       -0.0822
     11 C          64.7879   83.1698   12.0428 C.ar    1  UNL1        0.0116
     12 C          64.2449   83.5526   10.6980 C.ar    1  UNL1        0.0071
     13 C          63.1543   84.5771   10.5935 C.ar    1  UNL1        0.0740
     14 C          62.6112   84.9599    9.2486 C.ar    1  UNL1        0.2643
     15 O          63.1587   84.3180    8.0083 O.2     1  UNL1       -0.2668
     16 C          60.1917   89.1010   10.5069 C.3     1  UNL1        0.0942
     17 C          61.4199   89.7103    9.8985 C.3     1  UNL1        0.0476
     18 C          62.4737   90.3125   10.7799 C.ar    1  UNL1       -0.0205
     19 C          63.4042   91.3538   10.2322 C.ar    1  UNL1       -0.0041
     20 C          64.4580   91.9560   11.1135 C.ar    1  UNL1        0.0027
     21 C          64.5813   91.5170   12.5425 C.ar    1  UNL1        0.0358
     22 C          63.6508   90.4758   13.0902 C.ar    1  UNL1        0.0027
     23 C          62.5970   89.8735   12.2088 C.ar    1  UNL1       -0.0041
     24 C          65.6352   92.1193   13.4239 C.ar    1  UNL1        0.1624
     25 N          66.3915   91.2536   14.3875 N.ar    1  UNL1       -0.2227
     26 C          67.4453   91.8557   15.2689 C.ar    1  UNL1        0.1317
     27 C          67.7428   93.3237   15.1867 C.ar    1  UNL1        0.1783
     28 F          68.7966   93.9258   16.0680 F       1  UNL1       -0.2009
     29 C          66.9865   94.1894   14.2231 C.ar    1  UNL1        0.1317
     30 N          65.9326   93.5871   13.3417 N.ar    1  UNL1       -0.2227
@<TRIPOS>BOND
     1     3     4    1
     2     4     5   ar
     3     5     1    1
     4     1    16    1
     5    16    17    1
     6    17    18    1
     7    18    19   ar
     8    19    20   ar
     9    20    21   ar
    10    21    24    1
    11    24    25   ar
    12    25    26   ar
    13    26    27   ar
    14    27    28    1
    15    27    29   ar
    16    29    30   ar
    17    21    22   ar
    18    22    23   ar
    19     5     6   ar
    20     6     7   ar
    21     7     8   ar
    22     8     9   ar
    23     9    10    1
    24     9    11   ar
    25    11    12   ar
    26    12    13   ar
    27    13    14   ar
    28    14    15    2
    29    14     4   ar
    30    23    18   ar
    31    13     7   ar
    32    30    24   ar
    33     1     2    1
@<TRIPOS>MOLECULE
*****
 30 33 0 0 0
SMALL
GASTEIGER

@<TRIPOS>ATOM
      1 N          63.1378   86.5505   12.1752 N.pl3   1  UNL1       -0.3039
      2 H          63.9401   87.0562   12.4392 H       1  UNL1        0.1496
      3 C          62.9896   85.5587   15.0027 C.3     1  UNL1        0.1363
      4 N          62.9809   84.5823   13.8640 N.ar    1  UNL1       -0.2669
      5 C          63.0550   85.0782   12.4502 C.ar    1  UNL1        0.2002
      6 N          63.0463   84.1018   11.3116 N.ar    1  UNL1       -0.2150
      7 C          62.9635   82.6295   11.5866 C.ar    1  UNL1        0.0895
      8 C          62.9549   81.6532   10.4479 C.ar    1  UNL1        0.0307
      9 C          62.8721   80.1810   10.7230 C.ar    1  UNL1        0.0592
     10 CL         62.8634   79.2045    9.5842 Cl      1  UNL1       -0.0822
     11 C          62.7980   79.6851   12.1367 C.ar    1  UNL1        0.0116
     12 C          62.8067   80.6614   13.2754 C.ar    1  UNL1        0.0071
     13 C          62.8894   82.1336   13.0003 C.ar    1  UNL1        0.0740
     14 C          62.8981   83.1101   14.1390 C.ar    1  UNL1        0.2643
     15 O          62.8240   82.6142   15.5527 O.2     1  UNL1       -0.2668
     16 C          61.9981   87.2522   11.4980 C.3     1  UNL1        0.0942
     17 C          61.9684   88.7507   11.4396 C.3     1  UNL1        0.0476
     18 C          63.0298   89.5496   12.1362 C.ar    1  UNL1       -0.0205
     19 C          63.5640   90.8001   11.5031 C.ar    1  UNL1       -0.0041
     20 C          64.6253   91.5991   12.1996 C.ar    1  UNL1        0.0027
     21 C          65.1526   91.1474   13.5293 C.ar    1  UNL1        0.0358
     22 C          64.6184   89.8969   14.1624 C.ar    1  UNL1        0.0027
     23 C          63.5570   89.0980   13.4659 C.ar    1  UNL1       -0.0041
     24 C          66.2140   91.9464   14.2259 C.ar    1  UNL1        0.1624
     25 N          67.2678   91.2494   15.0343 N.ar    1  UNL1       -0.2227
     26 C          68.3292   92.0483   15.7309 C.ar    1  UNL1        0.1317
     27 C          68.3368   93.5441   15.6190 C.ar    1  UNL1        0.1783
     28 F          69.3982   94.3429   16.3156 F       1  UNL1       -0.2009
     29 C          67.2829   94.2410   14.8106 C.ar    1  UNL1        0.1317
     30 N          66.2215   93.4421   14.1140 N.ar    1  UNL1       -0.2227
@<TRIPOS>BOND
     1     3     4    1
     2     4     5   ar
     3     5     1    1
     4     1    16    1
     5    16    17    1
     6    17    18    1
     7    18    19   ar
     8    19    20   ar
     9    20    21   ar
    10    21    24    1
    11    24    25   ar
    12    25    26   ar
    13    26    27   ar
    14    27    28    1
    15    27    29   ar
    16    29    30   ar
    17    21    22   ar
    18    22    23   ar
    19     5     6   ar
    20     6     7   ar
    21     7     8   ar
    22     8     9   ar
    23     9    10    1
    24     9    11   ar
    25    11    12   ar
    26    12    13   ar
    27    13    14   ar
    28    14    15    2
    29    14     4   ar
    30    23    18   ar
    31    13     7   ar
    32    30    24   ar
    33     1     2    1
