@<TRIPOS>MOLECULE
*****
 29 33 0 0 0
SMALL
GASTEIGER

@<TRIPOS>ATOM
      1 C          63.0538   84.6171   15.4901 C.ar    1  UNL1        0.1845
      2 N          62.4197   84.5577   16.8482 N.ar    1  UNL1       -0.1274
      3 N          62.4152   85.9449   17.4186 N.ar    1  UNL1       -0.1316
      4 C          63.0464   86.8618   16.4131 C.ar    1  UNL1        0.1615
      5 N          63.4411   86.0411   15.2212 N.ar    1  UNL1       -0.2944
      6 C          64.1021   86.6965   14.0450 C.3     1  UNL1        0.1302
      7 C          64.3685   88.1726   14.0607 C.3     1  UNL1        0.1186
      8 N          63.9738   88.9933   15.2527 N.am    1  UNL1       -0.2688
      9 C          64.2401   90.4693   15.2684 C.2     1  UNL1        0.2493
     10 O          63.8454   91.2900   16.4604 O.2     1  UNL1       -0.2699
     11 C          63.3127   88.3378   16.4289 C.3     1  UNL1        0.1343
     12 C          62.9180   89.1585   17.6208 C.3     1  UNL1        0.0298
     13 C          62.5277   79.9346   13.1072 C.3     1  UNL1        0.0594
     14 C          63.0219   81.3040   13.4681 C.ar    1  UNL1        0.0887
     15 N          62.4730   82.1817   14.5538 N.ar    1  UNL1       -0.2396
     16 C          63.2638   83.4563   14.5635 C.ar    1  UNL1        0.1237
     17 C          64.3013   83.3665   13.4839 C.ar    1  UNL1        0.0588
     18 S          64.1518   82.0363   12.8070 S.2     1  UNL1       -0.0701
     19 C          64.9011   91.1247   14.0923 C.ar    1  UNL1        0.0536
     20 C          64.1271   91.3527   12.8278 C.ar    1  UNL1        0.0045
     21 C          64.7882   92.0082   11.6516 C.ar    1  UNL1        0.0006
     22 C          66.2233   92.4355   11.7399 C.ar    1  UNL1        0.0060
     23 C          66.9974   92.2075   13.0044 C.ar    1  UNL1        0.0006
     24 C          66.3363   91.5521   14.1805 C.ar    1  UNL1        0.0045
     25 C          66.8844   93.0910   10.5637 C.ar    1  UNL1        0.0295
     26 C          67.9135   92.4657    9.6692 C.ar    1  UNL1        0.0070
     27 C          68.2976   93.4750    8.6282 C.ar    1  UNL1        0.0075
     28 C          67.5059   94.7242    8.8793 C.ar    1  UNL1        0.0354
     29 S          66.6325   94.4868   10.0756 S.2     1  UNL1       -0.0864
@<TRIPOS>BOND
     1    13    14    1
     2    14    15   ar
     3    15    16   ar
     4    16     1    1
     5     1     2   ar
     6     2     3   ar
     7     3     4   ar
     8     4     5   ar
     9     5     6    1
    10     6     7    1
    11     7     8    1
    12     8     9   am
    13     9    10    2
    14     9    19    1
    15    19    20   ar
    16    20    21   ar
    17    21    22   ar
    18    22    25    1
    19    25    26   ar
    20    26    27   ar
    21    27    28   ar
    22    28    29   ar
    23    22    23   ar
    24    23    24   ar
    25     8    11    1
    26    11    12    1
    27    16    17   ar
    28    17    18   ar
    29    18    14   ar
    30     5     1   ar
    31    24    19   ar
    32    11     4    1
    33    29    25   ar
@<TRIPOS>MOLECULE
*****
 29 33 0 0 0
SMALL
GASTEIGER

@<TRIPOS>ATOM
      1 C          64.2028   90.9768   14.4192 C.ar    1  UNL1        0.1845
      2 N          64.0284   91.5999   15.7725 N.ar    1  UNL1       -0.1274
      3 N          63.6282   90.5189   16.7323 N.ar    1  UNL1       -0.1316
      4 C          63.5553   89.2277   15.9723 C.ar    1  UNL1        0.1615
      5 N          63.9105   89.5108   14.5427 N.ar    1  UNL1       -0.2944
      6 C          63.9217   88.3970   13.5380 C.3     1  UNL1        0.1302
      7 C          63.5779   87.0001   13.9629 C.3     1  UNL1        0.1186
      8 N          63.2227   86.7171   15.3925 N.am    1  UNL1       -0.2688
      9 C          62.8789   85.3203   15.8175 C.2     1  UNL1        0.2493
     10 O          62.5238   85.0372   17.2471 O.2     1  UNL1       -0.2699
     11 C          63.2115   87.8309   16.3972 C.3     1  UNL1        0.1343
     12 C          62.8564   87.5479   17.8268 C.3     1  UNL1        0.0298
     13 C          66.5082   94.3562   11.0807 C.3     1  UNL1        0.0594
     14 C          65.6596   93.2473   11.6284 C.ar    1  UNL1        0.0887
     15 N          65.5592   92.8433   13.0696 N.ar    1  UNL1       -0.2396
     16 C          64.5999   91.6939   13.1630 C.ar    1  UNL1        0.1237
     17 C          64.1074   91.3876   11.7797 C.ar    1  UNL1        0.0588
     18 S          64.7623   92.3476   10.8313 S.2     1  UNL1       -0.0701
     19 C          62.8902   84.2065   14.8128 C.ar    1  UNL1        0.0536
     20 C          62.0203   83.0019   15.0187 C.ar    1  UNL1        0.0045
     21 C          62.0316   81.8881   14.0139 C.ar    1  UNL1        0.0006
     22 C          62.9127   81.9790   12.8034 C.ar    1  UNL1        0.0060
     23 C          63.7826   83.1835   12.5976 C.ar    1  UNL1        0.0006
     24 C          63.7713   84.2973   13.6023 C.ar    1  UNL1        0.0045
     25 C          62.9240   80.8652   11.7987 C.ar    1  UNL1        0.0295
     26 C          63.2637   80.9940   10.3434 C.ar    1  UNL1        0.0070
     27 C          63.1472   79.6355    9.7182 C.ar    1  UNL1        0.0075
     28 C          62.7356   78.6670   10.7872 C.ar    1  UNL1        0.0354
     29 S          62.5977   79.4270   12.0731 S.2     1  UNL1       -0.0864
@<TRIPOS>BOND
     1    13    14    1
     2    14    15   ar
     3    15    16   ar
     4    16     1    1
     5     1     2   ar
     6     2     3   ar
     7     3     4   ar
     8     4     5   ar
     9     5     6    1
    10     6     7    1
    11     7     8    1
    12     8     9   am
    13     9    10    2
    14     9    19    1
    15    19    20   ar
    16    20    21   ar
    17    21    22   ar
    18    22    25    1
    19    25    26   ar
    20    26    27   ar
    21    27    28   ar
    22    28    29   ar
    23    22    23   ar
    24    23    24   ar
    25     8    11    1
    26    11    12    1
    27    16    17   ar
    28    17    18   ar
    29    18    14   ar
    30     5     1   ar
    31    24    19   ar
    32    11     4    1
    33    29    25   ar
