@<TRIPOS>MOLECULE
*****
 37 40 0 0 0
SMALL
GASTEIGER

@<TRIPOS>ATOM
      1 C          61.6298   94.6594   -1.0898 C.3     1  UNL1        0.0778
      2 C          63.0364   93.3984    0.6940 C.ar    1  UNL1        0.2211
      3 N          63.1155   92.6233    1.9757 N.ar    1  UNL1       -0.2119
      4 C          61.8672   92.3339    2.7555 C.ar    1  UNL1        0.0844
      5 C          61.9464   91.5587    4.0372 C.ar    1  UNL1        0.0197
      6 C          60.6981   91.2694    4.8170 C.ar    1  UNL1        0.0082
      7 C          59.3707   91.7551    4.3150 C.ar    1  UNL1        0.0347
      8 BR         58.1224   91.4657    5.0949 Br      1  UNL1       -0.0490
      9 C          59.2915   92.5303    3.0333 C.ar    1  UNL1        0.0082
     10 C          60.5398   92.8197    2.2536 C.ar    1  UNL1        0.0181
     11 C          60.4607   93.5949    0.9718 C.ar    1  UNL1        0.0023
     12 C          61.7090   93.8842    0.1920 C.ar    1  UNL1        0.0373
     13 C          65.4527   94.3470    0.5859 C.3     1  UNL1        0.2542
     14 O          64.2847   93.6878   -0.0858 O.3     1  UNL1       -0.4563
     15 C          62.6111   94.3890   -2.1916 C.ar    1  UNL1       -0.0160
     16 C          62.6806   93.0271   -2.8164 C.ar    1  UNL1       -0.0039
     17 C          63.6619   92.7566   -3.9182 C.ar    1  UNL1       -0.0006
     18 C          64.5736   93.8480   -4.3952 C.ar    1  UNL1       -0.0043
     19 C          64.5041   95.2100   -3.7704 C.ar    1  UNL1       -0.0222
     20 C          65.4158   96.3014   -4.2474 C.3     1  UNL1        0.0310
     21 C          63.5228   95.4804   -2.6686 C.ar    1  UNL1       -0.0081
     22 C          60.5695   95.7050   -1.2697 C.3     1  UNL1        0.1202
     23 O          61.2401   96.5626   -0.2378 O.3     1  UNL1       -0.3818
     24 H          61.0103   97.4924   -0.3912 H       1  UNL1        0.2107
     25 C          59.8989   94.8474   -2.3016 C.ar    1  UNL1        0.0556
     26 C          59.1534   93.6149   -1.8830 C.ar    1  UNL1        0.0042
     27 C          58.4828   92.7573   -2.9149 C.ar    1  UNL1        0.0206
     28 C          58.5578   93.1322   -4.3654 C.ar    1  UNL1        0.1020
     29 N          59.3032   94.3647   -4.7839 N.ar    1  UNL1       -0.2103
     30 C          59.9739   95.2223   -3.7520 C.ar    1  UNL1        0.2229
     31 O          60.7193   96.4548   -4.1706 O.3     1  UNL1       -0.4563
     32 C          61.0001   96.7046   -5.6228 C.3     1  UNL1        0.2542
     33 C          59.5092   96.7506   -1.4496 C.3     1  UNL1        0.0493
     34 C          58.1630   96.5710   -0.8127 C.3     1  UNL1        0.0750
     35 N          56.9171   96.7604   -1.6264 N.3     1  UNL1       -0.2702
     36 C          55.5839   96.8552   -0.9455 C.3     1  UNL1        0.0897
     37 C          57.0045   96.8549   -3.1208 C.3     1  UNL1        0.0897
@<TRIPOS>BOND
     1    13    14    1
     2    14     2    1
     3     2     3   ar
     4     3     4   ar
     5     4     5   ar
     6     5     6   ar
     7     6     7   ar
     8     7     8    1
     9     7     9   ar
    10     9    10   ar
    11    10    11   ar
    12    11    12   ar
    13    12     1    1
    14     1    15    1
    15    15    16   ar
    16    16    17   ar
    17    17    18   ar
    18    18    19   ar
    19    19    20    1
    20    19    21   ar
    21     1    22    1
    22    22    23    1
    23    22    33    1
    24    33    34    1
    25    34    35    1
    26    35    36    1
    27    35    37    1
    28    22    25    1
    29    25    26   ar
    30    26    27   ar
    31    27    28   ar
    32    28    29   ar
    33    29    30   ar
    34    30    31    1
    35    31    32    1
    36    12     2   ar
    37    21    15   ar
    38    30    25   ar
    39    10     4   ar
    40    23    24    1
@<TRIPOS>MOLECULE
*****
 37 40 0 0 0
SMALL
GASTEIGER

@<TRIPOS>ATOM
      1 C          60.8530   95.0335   -2.1115 C.3     1  UNL1        0.0778
      2 C          62.6813   94.0003   -0.5817 C.ar    1  UNL1        0.2211
      3 N          63.0701   93.2965    0.6845 N.ar    1  UNL1       -0.2119
      4 C          62.0194   92.9222    1.6876 C.ar    1  UNL1        0.0844
      5 C          62.4082   92.2184    2.9539 C.ar    1  UNL1        0.0197
      6 C          61.3575   91.8442    3.9568 C.ar    1  UNL1        0.0082
      7 C          59.9180   92.1736    3.6934 C.ar    1  UNL1        0.0347
      8 BR         58.8673   91.7993    4.6965 Br      1  UNL1       -0.0490
      9 C          59.5292   92.8774    2.4272 C.ar    1  UNL1        0.0082
     10 C          60.5799   93.2517    1.4242 C.ar    1  UNL1        0.0181
     11 C          60.1911   93.9555    0.1579 C.ar    1  UNL1        0.0023
     12 C          61.2418   94.3297   -0.8451 C.ar    1  UNL1        0.0373
     13 C          64.7338   95.4422   -1.2585 C.3     1  UNL1        0.2542
     14 O          63.7320   94.3746   -1.5848 O.3     1  UNL1       -0.4563
     15 C          61.7839   95.0298   -3.2877 C.ar    1  UNL1       -0.0160
     16 C          62.1976   96.3252   -3.9208 C.ar    1  UNL1       -0.0039
     17 C          63.1285   96.3215   -5.0970 C.ar    1  UNL1       -0.0006
     18 C          63.6457   95.0225   -5.6400 C.ar    1  UNL1       -0.0043
     19 C          63.2320   93.7270   -5.0069 C.ar    1  UNL1       -0.0222
     20 C          63.7492   92.4280   -5.5499 C.3     1  UNL1        0.0310
     21 C          62.3011   93.7307   -3.8307 C.ar    1  UNL1       -0.0081
     22 C          59.5334   95.7410   -2.2016 C.3     1  UNL1        0.1202
     23 O          60.0659   96.8444   -1.3363 O.3     1  UNL1       -0.3818
     24 H          59.5735   97.6610   -1.5141 H       1  UNL1        0.2107
     25 C          59.0010   94.6375   -3.0669 C.ar    1  UNL1        0.0556
     26 C          58.7059   93.2929   -2.4709 C.ar    1  UNL1        0.0042
     27 C          58.1734   92.1895   -3.3362 C.ar    1  UNL1        0.0206
     28 C          57.9360   92.4305   -4.7975 C.ar    1  UNL1        0.1020
     29 N          58.2311   93.7750   -5.3936 N.ar    1  UNL1       -0.2103
     30 C          58.7636   94.8785   -4.5282 C.ar    1  UNL1        0.2229
     31 O          59.0586   96.2230   -5.1243 O.3     1  UNL1       -0.4563
     32 C          58.0869   96.8493   -6.0800 C.3     1  UNL1        0.2542
     33 C          58.2138   96.4484   -2.2917 C.3     1  UNL1        0.0493
     34 C          57.1369   96.1575   -1.2889 C.3     1  UNL1        0.0750
     35 N          55.7604   95.7842   -1.7537 N.3     1  UNL1       -0.2702
     36 C          54.8148   96.8477   -2.2280 C.3     1  UNL1        0.0897
     37 C          55.3294   94.3475   -1.7442 C.3     1  UNL1        0.0897
@<TRIPOS>BOND
     1    13    14    1
     2    14     2    1
     3     2     3   ar
     4     3     4   ar
     5     4     5   ar
     6     5     6   ar
     7     6     7   ar
     8     7     8    1
     9     7     9   ar
    10     9    10   ar
    11    10    11   ar
    12    11    12   ar
    13    12     1    1
    14     1    15    1
    15    15    16   ar
    16    16    17   ar
    17    17    18   ar
    18    18    19   ar
    19    19    20    1
    20    19    21   ar
    21     1    22    1
    22    22    23    1
    23    22    33    1
    24    33    34    1
    25    34    35    1
    26    35    36    1
    27    35    37    1
    28    22    25    1
    29    25    26   ar
    30    26    27   ar
    31    27    28   ar
    32    28    29   ar
    33    29    30   ar
    34    30    31    1
    35    31    32    1
    36    12     2   ar
    37    21    15   ar
    38    30    25   ar
    39    10     4   ar
    40    23    24    1
@<TRIPOS>MOLECULE
*****
 37 40 0 0 0
SMALL
GASTEIGER

@<TRIPOS>ATOM
      1 C          61.6880   88.0497    9.9583 C.3     1  UNL1        0.0778
      2 C          62.6955   85.7249    9.3834 C.ar    1  UNL1        0.2211
      3 N          63.2816   84.4174    9.8270 N.ar    1  UNL1       -0.2119
      4 C          63.4464   84.1271   11.2895 C.ar    1  UNL1        0.0844
      5 C          64.0325   82.8196   11.7331 C.ar    1  UNL1        0.0197
      6 C          64.1972   82.5293   13.1955 C.ar    1  UNL1        0.0082
      7 C          63.7759   83.5465   14.2142 C.ar    1  UNL1        0.0347
      8 BR         63.9406   83.2561   15.6766 Br      1  UNL1       -0.0490
      9 C          63.1898   84.8540   13.7705 C.ar    1  UNL1        0.0082
     10 C          63.0250   85.1443   12.3082 C.ar    1  UNL1        0.0181
     11 C          62.4389   86.4518   11.8644 C.ar    1  UNL1        0.0023
     12 C          62.2741   86.7421   10.4021 C.ar    1  UNL1        0.0373
     13 C          62.2551   84.8964    6.9606 C.3     1  UNL1        0.2542
     14 O          62.5307   86.0153    7.9209 O.3     1  UNL1       -0.4563
     15 C          60.5966   88.0717    8.9296 C.ar    1  UNL1       -0.0160
     16 C          59.6223   86.9343    8.8454 C.ar    1  UNL1       -0.0039
     17 C          58.5308   86.9564    7.8167 C.ar    1  UNL1       -0.0006
     18 C          58.4137   88.1157    6.8722 C.ar    1  UNL1       -0.0043
     19 C          59.3880   89.2531    6.9564 C.ar    1  UNL1       -0.0222
     20 C          59.2709   90.4125    6.0119 C.3     1  UNL1        0.0310
     21 C          60.4795   89.2311    7.9851 C.ar    1  UNL1       -0.0081
     22 C          62.1933   89.3351   10.5433 C.3     1  UNL1        0.1202
     23 O          63.3050   89.3563    9.5365 O.3     1  UNL1       -0.3818
     24 H          63.5997   90.2702    9.3994 H       1  UNL1        0.2107
     25 C          61.0816   89.3139   11.5501 C.ar    1  UNL1        0.0556
     26 C          59.6550   89.2496   11.0910 C.ar    1  UNL1        0.0042
     27 C          58.5434   89.2284   12.0978 C.ar    1  UNL1        0.0206
     28 C          58.8582   89.2716   13.5637 C.ar    1  UNL1        0.1020
     29 N          60.2847   89.3360   14.0229 N.ar    1  UNL1       -0.2103
     30 C          61.3965   89.3571   13.0161 C.ar    1  UNL1        0.2229
     31 O          62.8230   89.4215   13.4752 O.3     1  UNL1       -0.4563
     32 C          63.1417   89.8606   14.8736 C.3     1  UNL1        0.2542
     33 C          62.6986   90.6206   11.1283 C.3     1  UNL1        0.0493
     34 C          63.6919   91.4503   10.3701 C.3     1  UNL1        0.0750
     35 N          64.7669   92.1928   11.1072 N.3     1  UNL1       -0.2702
     36 C          64.9635   91.9646   12.5766 C.3     1  UNL1        0.0897
     37 C          65.6452   93.1634   10.3748 C.3     1  UNL1        0.0897
@<TRIPOS>BOND
     1    13    14    1
     2    14     2    1
     3     2     3   ar
     4     3     4   ar
     5     4     5   ar
     6     5     6   ar
     7     6     7   ar
     8     7     8    1
     9     7     9   ar
    10     9    10   ar
    11    10    11   ar
    12    11    12   ar
    13    12     1    1
    14     1    15    1
    15    15    16   ar
    16    16    17   ar
    17    17    18   ar
    18    18    19   ar
    19    19    20    1
    20    19    21   ar
    21     1    22    1
    22    22    23    1
    23    22    33    1
    24    33    34    1
    25    34    35    1
    26    35    36    1
    27    35    37    1
    28    22    25    1
    29    25    26   ar
    30    26    27   ar
    31    27    28   ar
    32    28    29   ar
    33    29    30   ar
    34    30    31    1
    35    31    32    1
    36    12     2   ar
    37    21    15   ar
    38    30    25   ar
    39    10     4   ar
    40    23    24    1
@<TRIPOS>MOLECULE
*****
 37 40 0 0 0
SMALL
GASTEIGER

@<TRIPOS>ATOM
      1 C          62.7349   89.4448   12.5698 C.3     1  UNL1        0.0778
      2 C          64.0684   91.2517   13.8765 C.ar    1  UNL1        0.2211
      3 N          65.0120   92.4176   13.8842 N.ar    1  UNL1       -0.2119
      4 C          65.5659   92.9428   12.5929 C.ar    1  UNL1        0.0844
      5 C          66.5095   94.1088   12.6007 C.ar    1  UNL1        0.0197
      6 C          67.0634   94.6339   11.3094 C.ar    1  UNL1        0.0082
      7 C          66.6737   93.9930   10.0104 C.ar    1  UNL1        0.0347
      8 BR         67.2276   94.5182    8.7191 Br      1  UNL1       -0.0490
      9 C          65.7301   92.8271   10.0026 C.ar    1  UNL1        0.0082
     10 C          65.1762   92.3020   11.2939 C.ar    1  UNL1        0.0181
     11 C          64.2325   91.1360   11.2862 C.ar    1  UNL1        0.0023
     12 C          63.6786   90.6109   12.5775 C.ar    1  UNL1        0.0373
     13 C          63.9282   91.3474   16.4691 C.3     1  UNL1        0.2542
     14 O          63.5144   90.7265   15.1678 O.3     1  UNL1       -0.4563
     15 C          61.2743   89.6639   12.3081 C.ar    1  UNL1       -0.0160
     16 C          60.8390   90.6400   11.2557 C.ar    1  UNL1       -0.0039
     17 C          59.3783   90.8590   10.9940 C.ar    1  UNL1       -0.0006
     18 C          58.3529   90.1020   11.7848 C.ar    1  UNL1       -0.0043
     19 C          58.7882   89.1258   12.8373 C.ar    1  UNL1       -0.0222
     20 C          57.7628   88.3687   13.6281 C.3     1  UNL1        0.0310
     21 C          60.2489   88.9068   13.0990 C.ar    1  UNL1       -0.0081
     22 C          63.2520   88.0599   12.8237 C.3     1  UNL1        0.1202
     23 O          63.8746   88.5274   14.1058 O.3     1  UNL1       -0.3818
     24 H          63.9695   87.7761   14.7120 H       1  UNL1        0.2107
     25 C          62.6293   87.5923   11.5417 C.ar    1  UNL1        0.0556
     26 C          62.6291   88.4873   10.3379 C.ar    1  UNL1        0.0042
     27 C          62.0065   88.0197    9.0559 C.ar    1  UNL1        0.0206
     28 C          61.3839   86.6573    8.9776 C.ar    1  UNL1        0.1020
     29 N          61.3839   85.7624   10.1814 N.ar    1  UNL1       -0.2103
     30 C          62.0067   86.2299   11.4635 C.ar    1  UNL1        0.2229
     31 O          62.0067   85.3350   12.6672 O.3     1  UNL1       -0.4563
     32 C          62.3723   83.8872   12.5254 C.3     1  UNL1        0.2542
     33 C          63.7690   86.6749   13.0777 C.3     1  UNL1        0.0493
     34 C          64.5901   86.3935   14.3010 C.3     1  UNL1        0.0750
     35 N          64.0494   85.5003   15.3781 N.3     1  UNL1       -0.2702
     36 C          63.3388   86.0939   16.5582 C.3     1  UNL1        0.0897
     37 C          64.2194   84.0136   15.2750 C.3     1  UNL1        0.0897
@<TRIPOS>BOND
     1    13    14    1
     2    14     2    1
     3     2     3   ar
     4     3     4   ar
     5     4     5   ar
     6     5     6   ar
     7     6     7   ar
     8     7     8    1
     9     7     9   ar
    10     9    10   ar
    11    10    11   ar
    12    11    12   ar
    13    12     1    1
    14     1    15    1
    15    15    16   ar
    16    16    17   ar
    17    17    18   ar
    18    18    19   ar
    19    19    20    1
    20    19    21   ar
    21     1    22    1
    22    22    23    1
    23    22    33    1
    24    33    34    1
    25    34    35    1
    26    35    36    1
    27    35    37    1
    28    22    25    1
    29    25    26   ar
    30    26    27   ar
    31    27    28   ar
    32    28    29   ar
    33    29    30   ar
    34    30    31    1
    35    31    32    1
    36    12     2   ar
    37    21    15   ar
    38    30    25   ar
    39    10     4   ar
    40    23    24    1
@<TRIPOS>MOLECULE
*****
 37 40 0 0 0
SMALL
GASTEIGER

@<TRIPOS>ATOM
      1 C          62.0544   87.6172   10.8073 C.3     1  UNL1        0.0778
      2 C          63.4209   87.2633   12.9885 C.ar    1  UNL1        0.2211
      3 N          63.9522   86.3523   14.0551 N.ar    1  UNL1       -0.2119
      4 C          63.6484   84.8841   14.0073 C.ar    1  UNL1        0.0844
      5 C          64.1797   83.9731   15.0739 C.ar    1  UNL1        0.0197
      6 C          63.8759   82.5050   15.0260 C.ar    1  UNL1        0.0082
      7 C          63.0408   81.9479   13.9115 C.ar    1  UNL1        0.0347
      8 BR         62.7369   80.4797   13.8637 Br      1  UNL1       -0.0490
      9 C          62.5094   82.8589   12.8449 C.ar    1  UNL1        0.0082
     10 C          62.8133   84.3270   12.8928 C.ar    1  UNL1        0.0181
     11 C          62.2819   85.2380   11.8261 C.ar    1  UNL1        0.0023
     12 C          62.5857   86.7061   11.8740 C.ar    1  UNL1        0.0373
     13 C          64.1921   89.3593   14.3159 C.3     1  UNL1        0.2542
     14 O          63.7247   88.7315   13.0363 O.3     1  UNL1       -0.4563
     15 C          61.3438   87.0441    9.6171 C.ar    1  UNL1       -0.0160
     16 C          59.8809   87.3087    9.4179 C.ar    1  UNL1       -0.0039
     17 C          59.1703   86.7356    8.2277 C.ar    1  UNL1       -0.0006
     18 C          59.9226   85.8979    7.2367 C.ar    1  UNL1       -0.0043
     19 C          61.3857   85.6333    7.4358 C.ar    1  UNL1       -0.0222
     20 C          62.1380   84.7956    6.4447 C.3     1  UNL1        0.0310
     21 C          62.0963   86.2064    8.6260 C.ar    1  UNL1       -0.0081
     22 C          62.2337   89.1013   10.9308 C.3     1  UNL1        0.1202
     23 O          63.6028   88.9860   10.3291 O.3     1  UNL1       -0.3818
     24 H          63.8462   89.8289    9.9154 H       1  UNL1        0.2107
     25 C          60.8646   89.2166   11.5326 C.ar    1  UNL1        0.0556
     26 C          60.5456   88.5033   12.8131 C.ar    1  UNL1        0.0042
     27 C          59.1765   88.6186   13.4148 C.ar    1  UNL1        0.0206
     28 C          58.1263   89.4472   12.7362 C.ar    1  UNL1        0.1020
     29 N          58.4452   90.1604   11.4557 N.ar    1  UNL1       -0.2103
     30 C          59.8144   90.0451   10.8539 C.ar    1  UNL1        0.2229
     31 O          60.1333   90.7584    9.5735 O.3     1  UNL1       -0.4563
     32 C          59.9681   90.0523    8.2604 C.3     1  UNL1        0.2542
     33 C          62.4130   90.5854   11.0544 C.3     1  UNL1        0.0493
     34 C          63.5208   91.2714   10.3114 C.3     1  UNL1        0.0750
     35 N          64.5953   91.9952   11.0676 N.3     1  UNL1       -0.2702
     36 C          65.6489   92.7619   10.3245 C.3     1  UNL1        0.0897
     37 C          64.6162   91.9521   12.5668 C.3     1  UNL1        0.0897
@<TRIPOS>BOND
     1    13    14    1
     2    14     2    1
     3     2     3   ar
     4     3     4   ar
     5     4     5   ar
     6     5     6   ar
     7     6     7   ar
     8     7     8    1
     9     7     9   ar
    10     9    10   ar
    11    10    11   ar
    12    11    12   ar
    13    12     1    1
    14     1    15    1
    15    15    16   ar
    16    16    17   ar
    17    17    18   ar
    18    18    19   ar
    19    19    20    1
    20    19    21   ar
    21     1    22    1
    22    22    23    1
    23    22    33    1
    24    33    34    1
    25    34    35    1
    26    35    36    1
    27    35    37    1
    28    22    25    1
    29    25    26   ar
    30    26    27   ar
    31    27    28   ar
    32    28    29   ar
    33    29    30   ar
    34    30    31    1
    35    31    32    1
    36    12     2   ar
    37    21    15   ar
    38    30    25   ar
    39    10     4   ar
    40    23    24    1
@<TRIPOS>MOLECULE
*****
 37 40 0 0 0
SMALL
GASTEIGER

@<TRIPOS>ATOM
      1 C          63.1080   88.5882   12.1640 C.3     1  UNL1        0.0778
      2 C          60.7527   88.6352   11.0684 C.ar    1  UNL1        0.2211
      3 N          59.8039   88.1621   10.0074 N.ar    1  UNL1       -0.2119
      4 C          60.2615   87.1687    8.9808 C.ar    1  UNL1        0.0844
      5 C          59.3127   86.6956    7.9197 C.ar    1  UNL1        0.0197
      6 C          59.7704   85.7022    6.8933 C.ar    1  UNL1        0.0082
      7 C          61.1768   85.1820    6.9278 C.ar    1  UNL1        0.0347
      8 BR         61.6345   84.1886    5.9012 Br      1  UNL1       -0.0490
      9 C          62.1256   85.6551    7.9888 C.ar    1  UNL1        0.0082
     10 C          61.6680   86.6485    9.0153 C.ar    1  UNL1        0.0181
     11 C          62.6168   87.1217   10.0764 C.ar    1  UNL1        0.0023
     12 C          62.1592   88.1150   11.1029 C.ar    1  UNL1        0.0373
     13 C          59.2846   90.6748   11.7281 C.3     1  UNL1        0.2542
     14 O          60.2951   89.6287   12.0950 O.3     1  UNL1       -0.4563
     15 C          63.6425   87.6205   13.1778 C.ar    1  UNL1       -0.0160
     16 C          64.6592   88.0730   14.1835 C.ar    1  UNL1       -0.0039
     17 C          65.1937   87.1053   15.1973 C.ar    1  UNL1       -0.0006
     18 C          64.7115   85.6850   15.2054 C.ar    1  UNL1       -0.0043
     19 C          63.6948   85.2323   14.1997 C.ar    1  UNL1       -0.0222
     20 C          63.2126   83.8120   14.2079 C.3     1  UNL1        0.0310
     21 C          63.1603   86.2001   13.1859 C.ar    1  UNL1       -0.0081
     22 C          63.5223   90.0290   12.2113 C.3     1  UNL1        0.1202
     23 O          63.6858   90.0310   10.7203 O.3     1  UNL1       -0.3818
     24 H          63.5813   90.9350   10.3847 H       1  UNL1        0.2107
     25 C          63.3588   90.0271   13.7023 C.ar    1  UNL1        0.0556
     26 C          62.1089   89.4726   14.3191 C.ar    1  UNL1        0.0042
     27 C          61.9455   89.4707   15.8102 C.ar    1  UNL1        0.0206
     28 C          63.0318   90.0233   16.6845 C.ar    1  UNL1        0.1020
     29 N          64.2817   90.5778   16.0678 N.ar    1  UNL1       -0.2103
     30 C          64.4452   90.5797   14.5767 C.ar    1  UNL1        0.2229
     31 O          65.6950   91.1342   13.9600 O.3     1  UNL1       -0.4563
     32 C          66.8050   91.6352   14.8357 C.3     1  UNL1        0.2542
     33 C          63.9366   91.4699   12.2586 C.3     1  UNL1        0.0493
     34 C          64.5259   92.1211   11.0426 C.3     1  UNL1        0.0750
     35 N          65.8400   92.8382   11.1384 N.3     1  UNL1       -0.2702
     36 C          65.9825   94.0250   12.0446 C.3     1  UNL1        0.0897
     37 C          67.0115   92.3685   10.3280 C.3     1  UNL1        0.0897
@<TRIPOS>BOND
     1    13    14    1
     2    14     2    1
     3     2     3   ar
     4     3     4   ar
     5     4     5   ar
     6     5     6   ar
     7     6     7   ar
     8     7     8    1
     9     7     9   ar
    10     9    10   ar
    11    10    11   ar
    12    11    12   ar
    13    12     1    1
    14     1    15    1
    15    15    16   ar
    16    16    17   ar
    17    17    18   ar
    18    18    19   ar
    19    19    20    1
    20    19    21   ar
    21     1    22    1
    22    22    23    1
    23    22    33    1
    24    33    34    1
    25    34    35    1
    26    35    36    1
    27    35    37    1
    28    22    25    1
    29    25    26   ar
    30    26    27   ar
    31    27    28   ar
    32    28    29   ar
    33    29    30   ar
    34    30    31    1
    35    31    32    1
    36    12     2   ar
    37    21    15   ar
    38    30    25   ar
    39    10     4   ar
    40    23    24    1
@<TRIPOS>MOLECULE
*****
 37 40 0 0 0
SMALL
GASTEIGER

@<TRIPOS>ATOM
      1 C          62.9333   89.8720   12.0329 C.3     1  UNL1        0.0778
      2 C          63.2392   89.0851   14.4900 C.ar    1  UNL1        0.2211
      3 N          63.4925   87.9876   15.4806 N.ar    1  UNL1       -0.2119
      4 C          63.6932   86.5793   15.0047 C.ar    1  UNL1        0.0844
      5 C          63.9465   85.4818   15.9953 C.ar    1  UNL1        0.0197
      6 C          64.1472   84.0736   15.5193 C.ar    1  UNL1        0.0082
      7 C          64.0946   83.7628   14.0528 C.ar    1  UNL1        0.0347
      8 BR         64.2953   82.3545   13.5769 Br      1  UNL1       -0.0490
      9 C          63.8413   84.8603   13.0622 C.ar    1  UNL1        0.0082
     10 C          63.6406   86.2686   13.5382 C.ar    1  UNL1        0.0181
     11 C          63.3873   87.3661   12.5476 C.ar    1  UNL1        0.0023
     12 C          63.1866   88.7744   13.0235 C.ar    1  UNL1        0.0373
     13 C          63.7421   90.9756   16.1998 C.3     1  UNL1        0.2542
     14 O          63.0385   90.4934   14.9659 O.3     1  UNL1       -0.4563
     15 C          63.9976   90.8918   11.7551 C.ar    1  UNL1       -0.0160
     16 C          63.9900   91.6503   10.4610 C.ar    1  UNL1       -0.0039
     17 C          65.0543   92.6701   10.1832 C.ar    1  UNL1       -0.0006
     18 C          66.1261   92.9316   11.1994 C.ar    1  UNL1       -0.0043
     19 C          66.1337   92.1731   12.4936 C.ar    1  UNL1       -0.0222
     20 C          67.2055   92.4345   13.5098 C.3     1  UNL1        0.0310
     21 C          65.0694   91.1532   12.7714 C.ar    1  UNL1       -0.0081
     22 C          61.6157   89.9496   11.3202 C.3     1  UNL1        0.1202
     23 O          61.4314   91.3539   11.8140 O.3     1  UNL1       -0.3818
     24 H          60.8418   91.8338   11.2114 H       1  UNL1        0.2107
     25 C          61.8001   88.5453   10.8263 C.ar    1  UNL1        0.0556
     26 C          62.7903   88.2573    9.7370 C.ar    1  UNL1        0.0042
     27 C          62.9747   86.8530    9.2432 C.ar    1  UNL1        0.0206
     28 C          62.1688   85.7367    9.8386 C.ar    1  UNL1        0.1020
     29 N          61.1786   86.0247   10.9279 N.ar    1  UNL1       -0.2103
     30 C          60.9942   87.4291   11.4217 C.ar    1  UNL1        0.2229
     31 O          60.0040   87.7171   12.5110 O.3     1  UNL1       -0.4563
     32 C          58.8185   88.5935   12.2343 C.3     1  UNL1        0.2542
     33 C          60.2982   90.0273   10.6074 C.3     1  UNL1        0.0493
     34 C          60.2588   90.2806    9.1295 C.3     1  UNL1        0.0750
     35 N          59.6478   89.2646    8.2105 N.3     1  UNL1       -0.2702
     36 C          59.2071   87.9356    8.7485 C.3     1  UNL1        0.0897
     37 C          59.4775   89.5777    6.7535 C.3     1  UNL1        0.0897
@<TRIPOS>BOND
     1    13    14    1
     2    14     2    1
     3     2     3   ar
     4     3     4   ar
     5     4     5   ar
     6     5     6   ar
     7     6     7   ar
     8     7     8    1
     9     7     9   ar
    10     9    10   ar
    11    10    11   ar
    12    11    12   ar
    13    12     1    1
    14     1    15    1
    15    15    16   ar
    16    16    17   ar
    17    17    18   ar
    18    18    19   ar
    19    19    20    1
    20    19    21   ar
    21     1    22    1
    22    22    23    1
    23    22    33    1
    24    33    34    1
    25    34    35    1
    26    35    36    1
    27    35    37    1
    28    22    25    1
    29    25    26   ar
    30    26    27   ar
    31    27    28   ar
    32    28    29   ar
    33    29    30   ar
    34    30    31    1
    35    31    32    1
    36    12     2   ar
    37    21    15   ar
    38    30    25   ar
    39    10     4   ar
    40    23    24    1
@<TRIPOS>MOLECULE
*****
 37 40 0 0 0
SMALL
GASTEIGER

@<TRIPOS>ATOM
      1 C          61.1721   94.2051   -3.6198 C.3     1  UNL1        0.0778
      2 C          62.8703   95.3379   -2.0127 C.ar    1  UNL1        0.2211
      3 N          63.6204   95.3500   -0.7138 N.ar    1  UNL1       -0.2119
      4 C          63.4224   94.2412    0.2770 C.ar    1  UNL1        0.0844
      5 C          64.1725   94.2533    1.5759 C.ar    1  UNL1        0.0197
      6 C          63.9744   93.1446    2.5666 C.ar    1  UNL1        0.0082
      7 C          63.0263   92.0239    2.2584 C.ar    1  UNL1        0.0347
      8 BR         62.8283   90.9151    3.2492 Br      1  UNL1       -0.0490
      9 C          62.2763   92.0118    0.9595 C.ar    1  UNL1        0.0082
     10 C          62.4743   93.1205   -0.0312 C.ar    1  UNL1        0.0181
     11 C          61.7242   93.1084   -1.3302 C.ar    1  UNL1        0.0023
     12 C          61.9222   94.2171   -2.3209 C.ar    1  UNL1        0.0373
     13 C          64.4316   96.7114   -3.5701 C.3     1  UNL1        0.2542
     14 O          63.0683   96.4466   -3.0035 O.3     1  UNL1       -0.4563
     15 C          61.9067   94.4070   -4.9120 C.ar    1  UNL1       -0.0160
     16 C          61.4544   95.4649   -5.8744 C.ar    1  UNL1       -0.0039
     17 C          62.1890   95.6668   -7.1666 C.ar    1  UNL1       -0.0006
     18 C          63.3758   94.8109   -7.4962 C.ar    1  UNL1       -0.0043
     19 C          63.8282   93.7530   -6.5337 C.ar    1  UNL1       -0.0222
     20 C          65.0150   92.8970   -6.8634 C.3     1  UNL1        0.0310
     21 C          63.0936   93.5510   -5.2416 C.ar    1  UNL1       -0.0081
     22 C          59.6875   93.9912   -3.6266 C.3     1  UNL1        0.1202
     23 O          59.7966   93.2757   -4.9404 O.3     1  UNL1       -0.3818
     24 H          59.0470   92.6683   -5.0411 H       1  UNL1        0.2107
     25 C          59.5783   94.7066   -2.3128 C.ar    1  UNL1        0.0556
     26 C          60.0115   96.1384   -2.2002 C.ar    1  UNL1        0.0042
     27 C          59.9024   96.8538   -0.8864 C.ar    1  UNL1        0.0206
     28 C          59.3601   96.1377    0.3148 C.ar    1  UNL1        0.1020
     29 N          58.9269   94.7061    0.2023 N.ar    1  UNL1       -0.2103
     30 C          59.0360   93.9905   -1.1116 C.ar    1  UNL1        0.2229
     31 O          58.6028   92.5589   -1.2241 O.3     1  UNL1       -0.4563
     32 C          57.1733   92.1852   -0.9652 C.3     1  UNL1        0.2542
     33 C          58.2028   93.7772   -3.6334 C.3     1  UNL1        0.0493
     34 C          57.3922   94.1823   -4.8287 C.3     1  UNL1        0.0750
     35 N          56.8965   93.1400   -5.7870 N.3     1  UNL1       -0.2702
     36 C          57.0643   93.3389   -7.2642 C.3     1  UNL1        0.0897
     37 C          56.2331   91.8989   -5.2679 C.3     1  UNL1        0.0897
@<TRIPOS>BOND
     1    13    14    1
     2    14     2    1
     3     2     3   ar
     4     3     4   ar
     5     4     5   ar
     6     5     6   ar
     7     6     7   ar
     8     7     8    1
     9     7     9   ar
    10     9    10   ar
    11    10    11   ar
    12    11    12   ar
    13    12     1    1
    14     1    15    1
    15    15    16   ar
    16    16    17   ar
    17    17    18   ar
    18    18    19   ar
    19    19    20    1
    20    19    21   ar
    21     1    22    1
    22    22    23    1
    23    22    33    1
    24    33    34    1
    25    34    35    1
    26    35    36    1
    27    35    37    1
    28    22    25    1
    29    25    26   ar
    30    26    27   ar
    31    27    28   ar
    32    28    29   ar
    33    29    30   ar
    34    30    31    1
    35    31    32    1
    36    12     2   ar
    37    21    15   ar
    38    30    25   ar
    39    10     4   ar
    40    23    24    1
