@<TRIPOS>MOLECULE
*****
 51 57 0 0 0
SMALL
GASTEIGER

@<TRIPOS>ATOM
      1 C          63.2829   83.3316   12.8030 C.3     1  UNL1        0.0194
      2 C          62.9879   83.9001   11.4467 C.3     1  UNL1        0.0041
      3 C          62.9688   83.0024   10.2452 C.3     1  UNL1        0.0008
      4 C          63.2447   81.5361   10.4000 C.3     1  UNL1        0.0000
      5 C          63.5398   80.9676   11.7563 C.3     1  UNL1        0.0008
      6 C          63.0416   84.1916   12.1643 C.3     1  UNL1        0.0086
      7 C          62.7119   85.3663   11.2918 C.3     1  UNL1        0.0694
      8 C          62.6928   84.4686   10.0903 C.3     1  UNL1        0.0086
      9 C          63.0070   84.7978   12.6482 C.3     1  UNL1        0.0127
     10 C          63.5589   81.8653   12.9578 C.3     1  UNL1        0.0041
     11 C          62.4360   86.8326   11.1370 C.2     1  UNL1        0.2248
     12 O          63.1166   87.8227   12.0349 O.2     1  UNL1       -0.2749
     13 N          61.4794   87.3087   10.0843 N.am    1  UNL1       -0.2767
     14 C          61.2035   88.7749    9.9295 C.3     1  UNL1        0.1107
     15 C          60.2468   89.2510    8.8767 C.3     1  UNL1        0.0942
     16 N          59.5661   88.2608    7.9789 N.3     1  UNL1       -0.2660
     17 C          59.8421   86.7946    8.1337 C.3     1  UNL1        0.0942
     18 C          60.7987   86.3185    9.1864 C.3     1  UNL1        0.1107
     19 C          58.6095   88.7369    6.9261 C.3     1  UNL1        0.0992
     20 C          58.9963   89.8648    6.0161 C.ar    1  UNL1       -0.0062
     21 C          60.4225   90.0195    5.5777 C.ar    1  UNL1       -0.0030
     22 C          60.8092   91.1475    4.6677 C.ar    1  UNL1        0.0036
     23 C          59.7698   92.1208    4.1961 C.ar    1  UNL1        0.0714
     24 C          58.3437   91.9661    4.6345 C.ar    1  UNL1        0.0036
     25 C          57.9569   90.8381    5.5445 C.ar    1  UNL1       -0.0030
     26 C          60.1566   93.2488    3.2861 C.3     1  UNL1        0.4186
     27 F          60.5433   94.3767    2.3761 F       1  UNL1       -0.1659
     28 F          59.5535   94.2304    4.2466 F       1  UNL1       -0.1659
     29 F          60.7596   92.2671    2.3256 F       1  UNL1       -0.1659
     30 C          63.3403   86.0247   16.4077 C.ar    1  UNL1        0.1393
     31 C          64.5174   85.9901   15.4785 C.ar    1  UNL1        0.0366
     32 C          64.4982   85.0924   14.2770 C.ar    1  UNL1       -0.0012
     33 C          63.3020   84.2293   14.0046 C.ar    1  UNL1       -0.0226
     34 C          62.1250   84.2639   14.9338 C.ar    1  UNL1       -0.0012
     35 C          62.1441   85.1616   16.1354 C.ar    1  UNL1        0.0366
     36 O          63.3595   86.9224   17.6093 O.3     1  UNL1       -0.4656
     37 C          62.6963   88.2666   17.5518 C.3     1  UNL1        0.2897
     38 N          63.5486   88.9574   15.1967 N.am    1  UNL1       -0.2809
     39 C          63.2111   89.3174   16.6131 C.2     1  UNL1        0.2707
     40 O          63.3884   90.7281   17.0911 O.2     1  UNL1       -0.2707
     41 H          63.4322   88.0315   14.8830 H       1  UNL1        0.1550
     42 C          65.9103   91.7012   13.5705 C.ar    1  UNL1        0.0769
     43 C          65.0929   92.1097   12.3810 C.ar    1  UNL1        0.0065
     44 C          63.7608   91.4675   12.1300 C.ar    1  UNL1        0.0015
     45 C          63.2460   90.4167   13.0685 C.ar    1  UNL1        0.0147
     46 C          64.0634   90.0082   14.2581 C.ar    1  UNL1        0.0506
     47 C          65.3955   90.6504   14.5091 C.ar    1  UNL1        0.0211
     48 C          67.2424   92.3434   13.8214 C.2     1  UNL1        0.3414
     49 O          68.4492   91.8919   13.0534 O.2     1  UNL1       -0.2449
     50 C          68.5181   93.4370   15.8030 C.3     1  UNL1        0.2560
     51 O          67.3677   93.4370   14.8404 O.3     1  UNL1       -0.4413
@<TRIPOS>BOND
     1    50    51    1
     2    51    48    1
     3    48    49    2
     4    48    42    1
     5    42    43   ar
     6    43    44   ar
     7    44    45   ar
     8    45    46   ar
     9    46    38    1
    10    38    39   am
    11    39    40    2
    12    39    37    1
    13    37    36    1
    14    36    30    1
    15    30    31   ar
    16    31    32   ar
    17    32    33   ar
    18    33     1    1
    19     1     2    1
    20     2     3    1
    21     3     4    1
    22     4     5    1
    23     5     6    1
    24     6     7    1
    25     7    11    1
    26    11    12    2
    27    11    13   am
    28    13    14    1
    29    14    15    1
    30    15    16    1
    31    16    19    1
    32    19    20    1
    33    20    21   ar
    34    21    22   ar
    35    22    23   ar
    36    23    26    1
    37    26    27    1
    38    26    28    1
    39    26    29    1
    40    23    24   ar
    41    24    25   ar
    42    16    17    1
    43    17    18    1
    44     7     8    1
    45     7     9    1
    46     5    10    1
    47    33    34   ar
    48    34    35   ar
    49    46    47   ar
    50    47    42   ar
    51    35    30   ar
    52     9     1    1
    53    10     1    1
    54     8     3    1
    55    18    13    1
    56    25    20   ar
    57    38    41    1
@<TRIPOS>MOLECULE
*****
 51 57 0 0 0
SMALL
GASTEIGER

@<TRIPOS>ATOM
      1 C          64.5628   90.5065   13.8882 C.3     1  UNL1        0.0194
      2 C          64.0652   90.5096   12.4731 C.3     1  UNL1        0.0041
      3 C          64.4123   91.6467   11.5586 C.3     1  UNL1        0.0008
      4 C          65.2570   92.7807   12.0591 C.3     1  UNL1        0.0000
      5 C          65.7545   92.7777   13.4741 C.3     1  UNL1        0.0008
      6 C          63.9955   90.0285   13.0786 C.3     1  UNL1        0.0086
      7 C          63.2206   89.3755   11.9727 C.3     1  UNL1        0.0694
      8 C          63.5677   90.5126   11.0581 C.3     1  UNL1        0.0086
      9 C          63.7181   89.3725   13.3877 C.3     1  UNL1        0.0127
     10 C          65.4074   91.6406   14.3887 C.3     1  UNL1        0.0041
     11 C          62.3759   88.2415   11.4722 C.2     1  UNL1        0.2248
     12 O          62.4602   86.8962   12.1303 O.2     1  UNL1       -0.2749
     13 N          61.4470   88.4527   10.3135 N.am    1  UNL1       -0.2767
     14 C          60.6023   87.3186    9.8130 C.3     1  UNL1        0.1107
     15 C          59.6734   87.5299    8.6544 C.3     1  UNL1        0.0942
     16 N          59.5891   88.8751    7.9962 N.3     1  UNL1       -0.2660
     17 C          60.4338   90.0091    8.4967 C.3     1  UNL1        0.0942
     18 C          61.3627   89.7980    9.6553 C.3     1  UNL1        0.1107
     19 C          58.6601   89.0863    6.8375 C.3     1  UNL1        0.0992
     20 C          58.9537   90.1543    5.8260 C.ar    1  UNL1       -0.0062
     21 C          57.8372   90.9868    5.2688 C.ar    1  UNL1       -0.0030
     22 C          58.1307   92.0548    4.2572 C.ar    1  UNL1        0.0036
     23 C          59.5408   92.2902    3.8028 C.ar    1  UNL1        0.0714
     24 C          60.6572   91.4577    4.3600 C.ar    1  UNL1        0.0036
     25 C          60.3637   90.3898    5.3716 C.ar    1  UNL1       -0.0030
     26 C          59.8344   93.3582    2.7912 C.3     1  UNL1        0.4186
     27 F          60.1279   94.4262    1.7797 F       1  UNL1       -0.1659
     28 F          59.9422   94.3713    3.8921 F       1  UNL1       -0.1659
     29 F          59.7265   92.3451    1.6904 F       1  UNL1       -0.1659
     30 C          63.5214   87.0952   16.6321 C.ar    1  UNL1        0.1393
     31 C          63.0626   88.4859   16.9569 C.ar    1  UNL1        0.0366
     32 C          63.4097   89.6230   16.0423 C.ar    1  UNL1       -0.0012
     33 C          64.2156   89.3694   14.8028 C.ar    1  UNL1       -0.0226
     34 C          64.6745   87.9787   14.4780 C.ar    1  UNL1       -0.0012
     35 C          64.3274   86.8416   15.3927 C.ar    1  UNL1        0.0366
     36 O          63.1743   85.9581   17.5467 O.3     1  UNL1       -0.4656
     37 C          62.0917   84.9926   17.1654 C.3     1  UNL1        0.2897
     38 N          62.7880   82.9927   15.6601 N.am    1  UNL1       -0.2809
     39 C          62.1202   84.3261   15.8218 C.2     1  UNL1        0.2707
     40 O          61.4809   84.9930   14.6401 O.2     1  UNL1       -0.2707
     41 H          63.2076   82.5550   16.4357 H       1  UNL1        0.1550
     42 C          63.3347   82.4135   11.7722 C.ar    1  UNL1        0.0769
     43 C          62.8735   80.9934   11.6295 C.ar    1  UNL1        0.0065
     44 C          62.3838   80.2396   12.8304 C.ar    1  UNL1        0.0015
     45 C          62.3553   80.9061   14.1739 C.ar    1  UNL1        0.0147
     46 C          62.8165   82.3263   14.3166 C.ar    1  UNL1        0.0506
     47 C          63.3062   83.0801   13.1157 C.ar    1  UNL1        0.0211
     48 C          63.8244   83.1673   10.5713 C.2     1  UNL1        0.3414
     49 O          64.9203   82.5947    9.7220 O.2     1  UNL1       -0.2449
     50 C          63.0777   84.8963    8.7816 C.3     1  UNL1        0.2560
     51 O          63.2182   84.4935   10.2197 O.3     1  UNL1       -0.4413
@<TRIPOS>BOND
     1    50    51    1
     2    51    48    1
     3    48    49    2
     4    48    42    1
     5    42    43   ar
     6    43    44   ar
     7    44    45   ar
     8    45    46   ar
     9    46    38    1
    10    38    39   am
    11    39    40    2
    12    39    37    1
    13    37    36    1
    14    36    30    1
    15    30    31   ar
    16    31    32   ar
    17    32    33   ar
    18    33     1    1
    19     1     2    1
    20     2     3    1
    21     3     4    1
    22     4     5    1
    23     5     6    1
    24     6     7    1
    25     7    11    1
    26    11    12    2
    27    11    13   am
    28    13    14    1
    29    14    15    1
    30    15    16    1
    31    16    19    1
    32    19    20    1
    33    20    21   ar
    34    21    22   ar
    35    22    23   ar
    36    23    26    1
    37    26    27    1
    38    26    28    1
    39    26    29    1
    40    23    24   ar
    41    24    25   ar
    42    16    17    1
    43    17    18    1
    44     7     8    1
    45     7     9    1
    46     5    10    1
    47    33    34   ar
    48    34    35   ar
    49    46    47   ar
    50    47    42   ar
    51    35    30   ar
    52     9     1    1
    53    10     1    1
    54     8     3    1
    55    18    13    1
    56    25    20   ar
    57    38    41    1
@<TRIPOS>MOLECULE
*****
 51 57 0 0 0
SMALL
GASTEIGER

@<TRIPOS>ATOM
      1 C          63.1881   83.6553   13.0486 C.3     1  UNL1        0.0194
      2 C          62.8993   84.1141   11.6500 C.3     1  UNL1        0.0041
      3 C          62.8485   83.1183   10.5295 C.3     1  UNL1        0.0008
      4 C          63.0865   81.6636   10.8075 C.3     1  UNL1        0.0000
      5 C          63.3754   81.2048   12.2060 C.3     1  UNL1        0.0008
      6 C          62.9654   84.4641   12.3400 C.3     1  UNL1        0.0086
      7 C          62.6612   85.5688   11.3720 C.3     1  UNL1        0.0694
      8 C          62.6104   84.5730   10.2515 C.3     1  UNL1        0.0086
      9 C          62.9501   85.1100   12.7706 C.3     1  UNL1        0.0127
     10 C          63.4262   82.2006   13.3266 C.3     1  UNL1        0.0041
     11 C          62.4232   87.0235   11.0940 C.2     1  UNL1        0.2248
     12 O          63.1505   88.0676   11.8882 O.2     1  UNL1       -0.2749
     13 N          61.4578   87.4340   10.0219 N.am    1  UNL1       -0.2767
     14 C          61.2197   88.8886    9.7439 C.3     1  UNL1        0.1107
     15 C          60.2543   89.2991    8.6717 C.3     1  UNL1        0.0942
     16 N          59.5270   88.2550    7.8776 N.3     1  UNL1       -0.2660
     17 C          59.7650   86.8003    8.1556 C.3     1  UNL1        0.0942
     18 C          60.7304   86.3898    9.2277 C.3     1  UNL1        0.1107
     19 C          58.5615   88.6655    6.8054 C.3     1  UNL1        0.0992
     20 C          58.8746   89.8372    5.9229 C.ar    1  UNL1       -0.0062
     21 C          60.2890   90.0987    5.4971 C.ar    1  UNL1       -0.0030
     22 C          60.6021   91.2705    4.6145 C.ar    1  UNL1        0.0036
     23 C          59.5008   92.1808    4.1578 C.ar    1  UNL1        0.0714
     24 C          58.0865   91.9193    4.5836 C.ar    1  UNL1        0.0036
     25 C          57.7734   90.7475    5.4661 C.ar    1  UNL1       -0.0030
     26 C          59.8139   93.3526    3.2752 C.3     1  UNL1        0.4186
     27 F          60.1270   94.5244    2.3926 F       1  UNL1       -0.1659
     28 F          59.5589   94.2847    4.4224 F       1  UNL1       -0.1659
     29 F          60.0689   92.4204    2.1280 F       1  UNL1       -0.1659
     30 C          63.3405   86.6428   16.4105 C.ar    1  UNL1        0.1393
     31 C          62.2926   85.5694   16.4078 C.ar    1  UNL1        0.0366
     32 C          62.2418   84.5736   15.2872 C.ar    1  UNL1       -0.0012
     33 C          63.2389   84.6511   14.1692 C.ar    1  UNL1       -0.0226
     34 C          64.2868   85.7244   14.1719 C.ar    1  UNL1       -0.0012
     35 C          64.3376   86.7202   15.2925 C.ar    1  UNL1        0.0366
     36 O          63.3913   87.6385   17.5311 O.3     1  UNL1       -0.4656
     37 C          62.7543   88.9864   17.3660 C.3     1  UNL1        0.2897
     38 N          64.2847   89.7806   15.4226 N.am    1  UNL1       -0.2809
     39 C          63.4940   90.0842   16.6605 C.2     1  UNL1        0.2707
     40 O          63.4429   91.4856   17.1929 O.2     1  UNL1       -0.2707
     41 H          64.3182   88.8609   15.0731 H       1  UNL1        0.1550
     42 C          65.5335   92.2165   12.5490 C.ar    1  UNL1        0.0769
     43 C          66.5037   93.0740   13.3061 C.ar    1  UNL1        0.0065
     44 C          66.7344   92.8338   14.7687 C.ar    1  UNL1        0.0015
     45 C          65.9947   91.7360   15.4741 C.ar    1  UNL1        0.0147
     46 C          65.0244   90.8784   14.7171 C.ar    1  UNL1        0.0506
     47 C          64.7937   91.1187   13.2545 C.ar    1  UNL1        0.0211
     48 C          65.3028   92.4568   11.0865 C.2     1  UNL1        0.3414
     49 O          66.4676   92.7051   10.1744 O.2     1  UNL1       -0.2449
     50 C          63.3017   91.1670   10.0464 C.3     1  UNL1        0.2560
     51 O          63.9075   92.4489   10.5360 O.3     1  UNL1       -0.4413
@<TRIPOS>BOND
     1    50    51    1
     2    51    48    1
     3    48    49    2
     4    48    42    1
     5    42    43   ar
     6    43    44   ar
     7    44    45   ar
     8    45    46   ar
     9    46    38    1
    10    38    39   am
    11    39    40    2
    12    39    37    1
    13    37    36    1
    14    36    30    1
    15    30    31   ar
    16    31    32   ar
    17    32    33   ar
    18    33     1    1
    19     1     2    1
    20     2     3    1
    21     3     4    1
    22     4     5    1
    23     5     6    1
    24     6     7    1
    25     7    11    1
    26    11    12    2
    27    11    13   am
    28    13    14    1
    29    14    15    1
    30    15    16    1
    31    16    19    1
    32    19    20    1
    33    20    21   ar
    34    21    22   ar
    35    22    23   ar
    36    23    26    1
    37    26    27    1
    38    26    28    1
    39    26    29    1
    40    23    24   ar
    41    24    25   ar
    42    16    17    1
    43    17    18    1
    44     7     8    1
    45     7     9    1
    46     5    10    1
    47    33    34   ar
    48    34    35   ar
    49    46    47   ar
    50    47    42   ar
    51    35    30   ar
    52     9     1    1
    53    10     1    1
    54     8     3    1
    55    18    13    1
    56    25    20   ar
    57    38    41    1
@<TRIPOS>MOLECULE
*****
 51 57 0 0 0
SMALL
GASTEIGER

@<TRIPOS>ATOM
      1 C          64.6549   91.0218   13.7634 C.3     1  UNL1        0.0194
      2 C          64.2516   90.8714   12.3265 C.3     1  UNL1        0.0041
      3 C          64.7154   91.8710   11.3088 C.3     1  UNL1        0.0008
      4 C          65.5825   93.0209   11.7280 C.3     1  UNL1        0.0000
      5 C          65.9858   93.1714   13.1648 C.3     1  UNL1        0.0008
      6 C          64.1180   90.4722   12.9789 C.3     1  UNL1        0.0086
      7 C          63.3846   89.7214   11.9073 C.3     1  UNL1        0.0694
      8 C          63.8483   90.7210   10.8896 C.3     1  UNL1        0.0086
      9 C          63.7879   89.8719   13.3442 C.3     1  UNL1        0.0127
     10 C          65.5220   92.1718   14.1825 C.3     1  UNL1        0.0041
     11 C          62.5175   88.5714   11.4881 C.2     1  UNL1        0.2248
     12 O          62.5924   87.2677   12.2261 O.2     1  UNL1       -0.2749
     13 N          61.5755   88.7252   10.3310 N.am    1  UNL1       -0.2767
     14 C          60.7084   87.5752    9.9119 C.3     1  UNL1        0.1107
     15 C          59.7664   87.7290    8.7547 C.3     1  UNL1        0.0942
     16 N          59.6914   89.0327    8.0168 N.3     1  UNL1       -0.2660
     17 C          60.5585   90.1827    8.4359 C.3     1  UNL1        0.0942
     18 C          61.5005   90.0290    9.5930 C.3     1  UNL1        0.1107
     19 C          58.7494   89.1865    6.8596 C.3     1  UNL1        0.0992
     20 C          59.0087   90.2315    5.8152 C.ar    1  UNL1       -0.0062
     21 C          60.4087   90.4866    5.3409 C.ar    1  UNL1       -0.0030
     22 C          60.6680   91.5316    4.2965 C.ar    1  UNL1        0.0036
     23 C          59.5273   92.3215    3.7264 C.ar    1  UNL1        0.0714
     24 C          58.1274   92.0663    4.2007 C.ar    1  UNL1        0.0036
     25 C          57.8681   91.0213    5.2451 C.ar    1  UNL1       -0.0030
     26 C          59.7866   93.3665    2.6820 C.3     1  UNL1        0.4186
     27 F          60.0459   94.4115    1.6376 F       1  UNL1       -0.1659
     28 F          60.0318   94.3817    3.7587 F       1  UNL1       -0.1659
     29 F          59.5414   92.3512    1.6053 F       1  UNL1       -0.1659
     30 C          63.2636   88.0232   16.8167 C.ar    1  UNL1        0.1393
     31 C          62.9047   89.4716   16.9702 C.ar    1  UNL1        0.0366
     32 C          63.3685   90.4711   15.9524 C.ar    1  UNL1       -0.0012
     33 C          64.1912   90.0223   14.7812 C.ar    1  UNL1       -0.0226
     34 C          64.5501   88.5740   14.6277 C.ar    1  UNL1       -0.0012
     35 C          64.0863   87.5744   15.6455 C.ar    1  UNL1        0.0366
     36 O          62.7999   87.0237   17.8345 O.3     1  UNL1       -0.4656
     37 C          63.1038   85.5668   17.6475 C.3     1  UNL1        0.2897
     38 N          64.1194   84.2254   15.6677 N.am    1  UNL1       -0.2809
     39 C          62.9571   84.9378   16.2936 C.2     1  UNL1        0.2707
     40 O          61.6483   85.0212   15.5657 O.2     1  UNL1       -0.2707
     41 H          64.9784   84.1707   16.1455 H       1  UNL1        0.1550
     42 C          63.1697   81.6256   12.8235 C.ar    1  UNL1        0.0769
     43 C          63.6794   82.3386   11.6062 C.ar    1  UNL1        0.0065
     44 C          64.3357   83.6804   11.7427 C.ar    1  UNL1        0.0015
     45 C          64.4823   84.3094   13.0965 C.ar    1  UNL1        0.0147
     46 C          63.9727   83.5965   14.3139 C.ar    1  UNL1        0.0506
     47 C          63.3164   82.2546   14.1774 C.ar    1  UNL1        0.0211
     48 C          62.5134   80.2838   12.6871 C.2     1  UNL1        0.3414
     49 O          62.6442   79.5115   11.4077 O.2     1  UNL1       -0.2449
     50 C          60.3727   80.2703   14.1593 C.3     1  UNL1        0.2560
     51 O          61.7263   79.7141   13.8298 O.3     1  UNL1       -0.4413
@<TRIPOS>BOND
     1    50    51    1
     2    51    48    1
     3    48    49    2
     4    48    42    1
     5    42    43   ar
     6    43    44   ar
     7    44    45   ar
     8    45    46   ar
     9    46    38    1
    10    38    39   am
    11    39    40    2
    12    39    37    1
    13    37    36    1
    14    36    30    1
    15    30    31   ar
    16    31    32   ar
    17    32    33   ar
    18    33     1    1
    19     1     2    1
    20     2     3    1
    21     3     4    1
    22     4     5    1
    23     5     6    1
    24     6     7    1
    25     7    11    1
    26    11    12    2
    27    11    13   am
    28    13    14    1
    29    14    15    1
    30    15    16    1
    31    16    19    1
    32    19    20    1
    33    20    21   ar
    34    21    22   ar
    35    22    23   ar
    36    23    26    1
    37    26    27    1
    38    26    28    1
    39    26    29    1
    40    23    24   ar
    41    24    25   ar
    42    16    17    1
    43    17    18    1
    44     7     8    1
    45     7     9    1
    46     5    10    1
    47    33    34   ar
    48    34    35   ar
    49    46    47   ar
    50    47    42   ar
    51    35    30   ar
    52     9     1    1
    53    10     1    1
    54     8     3    1
    55    18    13    1
    56    25    20   ar
    57    38    41    1
