@<TRIPOS>MOLECULE
*****
 32 36 0 0 0
SMALL
GASTEIGER

@<TRIPOS>ATOM
      1 C          63.3859   84.5136   13.2447 C.ar    1  UNL1        0.2014
      2 N          63.0383   83.3891   14.1746 N.ar    1  UNL1       -0.2136
      3 C          62.9028   82.1378   13.3585 C.ar    1  UNL1        0.0999
      4 C          62.5732   80.7241   13.7362 C.ar    1  UNL1        0.0207
      5 C          62.5075   79.6615   12.6796 C.ar    1  UNL1        0.0016
      6 C          62.7714   80.0126   11.2453 C.ar    1  UNL1        0.0016
      7 C          63.1010   81.4263   10.8677 C.ar    1  UNL1        0.0188
      8 C          63.1666   82.4889   11.9243 C.ar    1  UNL1        0.0801
      9 N          63.4652   83.9572   11.8539 N.ar    1  UNL1       -0.2954
     10 C          64.0705   88.8029   14.4207 C.3     1  UNL1        0.1373
     11 C          63.5463   88.4744   13.0543 C.3     1  UNL1        0.0587
     12 C          63.3181   87.0446   12.6623 C.3     1  UNL1        0.0968
     13 N          63.6141   85.9434   13.6367 N.pl3   1  UNL1       -0.2793
     14 C          64.1383   86.2719   15.0032 C.3     1  UNL1        0.0968
     15 C          64.3665   87.7017   15.3952 C.3     1  UNL1        0.0587
     16 C          63.6700   90.7777   16.0608 C.3     1  UNL1        0.2076
     17 N          64.2987   90.2327   14.8128 N.pl3   1  UNL1       -0.1949
     18 C          65.1556   91.1175   13.9567 C.2     1  UNL1        0.4153
     19 N          64.5465   91.8712   12.8118 N.2     1  UNL1       -0.0737
     20 C          65.4036   92.7560   11.9558 C.2     1  UNL1        0.1771
     21 C          66.8696   92.8870   12.2447 C.3     1  UNL1        0.1729
     22 C          67.4787   92.1333   13.3896 C.2     1  UNL1        0.3261
     23 O          68.9448   92.2643   13.6785 O.2     1  UNL1       -0.2529
     24 N          66.6218   91.2485   14.2456 N.am    1  UNL1       -0.0022
     25 C          63.7867   84.7330   10.6110 C.3     1  UNL1        0.1354
     26 C          62.6814   85.1966    9.7093 C.ar    1  UNL1        0.0006
     27 C          61.4973   85.9167   10.2833 C.ar    1  UNL1       -0.0001
     28 C          60.3919   86.3803    9.3816 C.ar    1  UNL1        0.0294
     29 C          60.4705   86.1238    7.9057 C.ar    1  UNL1        0.1401
     30 F          59.3651   86.5874    7.0040 F       1  UNL1       -0.2042
     31 C          61.6545   85.4036    7.3317 C.ar    1  UNL1        0.0294
     32 C          62.7599   84.9400    8.2335 C.ar    1  UNL1       -0.0001
@<TRIPOS>BOND
     1    16    17    1
     2    17    18    1
     3    18    19    1
     4    19    20    2
     5    20    21    1
     6    21    22    1
     7    22    23    2
     8    22    24    1
     9    17    10    1
    10    10    11    1
    11    11    12    1
    12    12    13    1
    13    13     1    1
    14     1     2   ar
    15     2     3   ar
    16     3     4   ar
    17     4     5   ar
    18     5     6   ar
    19     6     7   ar
    20     7     8   ar
    21     8     9   ar
    22     9    25    1
    23    25    26    1
    24    26    27   ar
    25    27    28   ar
    26    28    29   ar
    27    29    30    1
    28    29    31   ar
    29    31    32   ar
    30    13    14    1
    31    14    15    1
    32    24    18    2
    33    15    10    1
    34     9     1   ar
    35    32    26   ar
    36     8     3   ar
@<TRIPOS>MOLECULE
*****
 32 36 0 0 0
SMALL
GASTEIGER

@<TRIPOS>ATOM
      1 C          63.1792   85.0515   13.1360 C.ar    1  UNL1        0.2014
      2 N          62.7641   84.2195   14.3131 N.ar    1  UNL1       -0.2136
      3 C          62.6141   82.8012   13.8485 C.ar    1  UNL1        0.0999
      4 C          62.2256   81.5446   14.5696 C.ar    1  UNL1        0.0207
      5 C          62.1595   80.2434   13.8264 C.ar    1  UNL1        0.0016
      6 C          62.4819   80.1987   12.3622 C.ar    1  UNL1        0.0016
      7 C          62.8704   81.4553   11.6411 C.ar    1  UNL1        0.0188
      8 C          62.9365   82.7565   12.3843 C.ar    1  UNL1        0.0801
      9 N          63.2858   84.1473   11.9439 N.ar    1  UNL1       -0.2954
     10 C          63.9666   89.4819   13.1743 C.3     1  UNL1        0.1373
     11 C          64.5103   88.6140   14.2702 C.3     1  UNL1        0.0587
     12 C          64.2479   87.1372   14.2575 C.3     1  UNL1        0.0968
     13 N          63.4417   86.5283   13.1488 N.pl3   1  UNL1       -0.2793
     14 C          62.8979   87.3961   12.0529 C.3     1  UNL1        0.0968
     15 C          63.1604   88.8730   12.0656 C.3     1  UNL1        0.0587
     16 C          63.5295   91.8532   12.2071 C.3     1  UNL1        0.2076
     17 N          64.2290   90.9587   13.1871 N.pl3   1  UNL1       -0.1949
     18 C          65.1910   91.5409   14.1798 C.2     1  UNL1        0.4153
     19 N          64.7193   91.9059   15.5561 N.2     1  UNL1       -0.0737
     20 C          65.6813   92.4882   16.5488 C.2     1  UNL1        0.1771
     21 C          67.1151   92.7054   16.1652 C.3     1  UNL1        0.1729
     22 C          67.5868   92.3404   14.7889 C.2     1  UNL1        0.3261
     23 O          69.0206   92.5577   14.4054 O.2     1  UNL1       -0.2529
     24 N          66.6248   91.7582   13.7962 N.am    1  UNL1       -0.0022
     25 C          63.6735   84.5611   10.5553 C.3     1  UNL1        0.1354
     26 C          62.6301   85.0701    9.6055 C.ar    1  UNL1        0.0006
     27 C          62.7700   84.8196    8.1331 C.ar    1  UNL1       -0.0001
     28 C          61.7267   85.3286    7.1832 C.ar    1  UNL1        0.0294
     29 C          60.5433   86.0881    7.7057 C.ar    1  UNL1        0.1401
     30 F          59.4999   86.5971    6.7558 F       1  UNL1       -0.2042
     31 C          60.4034   86.3386    9.1779 C.ar    1  UNL1        0.0294
     32 C          61.4468   85.8296   10.1278 C.ar    1  UNL1       -0.0001
@<TRIPOS>BOND
     1    16    17    1
     2    17    18    1
     3    18    19    1
     4    19    20    2
     5    20    21    1
     6    21    22    1
     7    22    23    2
     8    22    24    1
     9    17    10    1
    10    10    11    1
    11    11    12    1
    12    12    13    1
    13    13     1    1
    14     1     2   ar
    15     2     3   ar
    16     3     4   ar
    17     4     5   ar
    18     5     6   ar
    19     6     7   ar
    20     7     8   ar
    21     8     9   ar
    22     9    25    1
    23    25    26    1
    24    26    27   ar
    25    27    28   ar
    26    28    29   ar
    27    29    30    1
    28    29    31   ar
    29    31    32   ar
    30    13    14    1
    31    14    15    1
    32    24    18    2
    33    15    10    1
    34     9     1   ar
    35    32    26   ar
    36     8     3   ar
@<TRIPOS>MOLECULE
*****
 32 36 0 0 0
SMALL
GASTEIGER

@<TRIPOS>ATOM
      1 C          61.6646   89.3300   10.9001 C.ar    1  UNL1        0.2014
      2 N          61.1511   90.0868    9.7112 N.ar    1  UNL1       -0.2136
      3 C          60.3981   89.1257    8.8398 C.ar    1  UNL1        0.0999
      4 C          59.6749   89.3060    7.5381 C.ar    1  UNL1        0.0207
      5 C          58.9999   88.1355    6.8868 C.ar    1  UNL1        0.0016
      6 C          59.0480   86.7847    7.5371 C.ar    1  UNL1        0.0016
      7 C          59.7712   86.6044    8.8388 C.ar    1  UNL1        0.0188
      8 C          60.4463   87.7748    9.4901 C.ar    1  UNL1        0.0801
      9 N          61.2290   87.9011   10.7635 N.ar    1  UNL1       -0.2954
     10 C          64.0865   91.0449   14.2829 C.3     1  UNL1        0.1373
     11 C          63.0790   89.9670   14.5530 C.3     1  UNL1        0.0587
     12 C          62.2717   89.3954   13.4254 C.3     1  UNL1        0.0968
     13 N          62.4719   89.9016   12.0277 N.pl3   1  UNL1       -0.2793
     14 C          63.4794   90.9795   11.7576 C.3     1  UNL1        0.0968
     15 C          64.2867   91.5512   12.8852 C.3     1  UNL1        0.0587
     16 C          64.2652   91.8147   16.7578 C.3     1  UNL1        0.2076
     17 N          64.8938   91.6166   15.4105 N.pl3   1  UNL1       -0.1949
     18 C          66.3298   91.9901   15.1907 C.2     1  UNL1        0.4153
     19 N          67.0797   92.7424   16.2498 N.2     1  UNL1       -0.0737
     20 C          68.5157   93.1160   16.0300 C.2     1  UNL1        0.1771
     21 C          69.2019   92.7372   14.7510 C.3     1  UNL1        0.1729
     22 C          68.4520   91.9849   13.6919 C.2     1  UNL1        0.3261
     23 O          69.1383   91.6061   12.4129 O.2     1  UNL1       -0.2529
     24 N          67.0160   91.6114   13.9117 N.am    1  UNL1       -0.0022
     25 C          61.5243   86.7930   11.7304 C.3     1  UNL1        0.1354
     26 C          62.3192   85.6014   11.2856 C.ar    1  UNL1        0.0006
     27 C          62.7383   84.5640   12.2848 C.ar    1  UNL1       -0.0001
     28 C          63.5333   83.3723   11.8400 C.ar    1  UNL1        0.0294
     29 C          63.9093   83.2180   10.3961 C.ar    1  UNL1        0.1401
     30 F          64.7043   82.0263    9.9514 F       1  UNL1       -0.2042
     31 C          63.4903   84.2554    9.3970 C.ar    1  UNL1        0.0294
     32 C          62.6952   85.4471    9.8418 C.ar    1  UNL1       -0.0001
@<TRIPOS>BOND
     1    16    17    1
     2    17    18    1
     3    18    19    1
     4    19    20    2
     5    20    21    1
     6    21    22    1
     7    22    23    2
     8    22    24    1
     9    17    10    1
    10    10    11    1
    11    11    12    1
    12    12    13    1
    13    13     1    1
    14     1     2   ar
    15     2     3   ar
    16     3     4   ar
    17     4     5   ar
    18     5     6   ar
    19     6     7   ar
    20     7     8   ar
    21     8     9   ar
    22     9    25    1
    23    25    26    1
    24    26    27   ar
    25    27    28   ar
    26    28    29   ar
    27    29    30    1
    28    29    31   ar
    29    31    32   ar
    30    13    14    1
    31    14    15    1
    32    24    18    2
    33    15    10    1
    34     9     1   ar
    35    32    26   ar
    36     8     3   ar
@<TRIPOS>MOLECULE
*****
 32 36 0 0 0
SMALL
GASTEIGER

@<TRIPOS>ATOM
      1 C          65.3818   91.5354   13.3869 C.ar    1  UNL1        0.2014
      2 N          65.4360   91.7461   14.8710 N.ar    1  UNL1       -0.2136
      3 C          66.8149   92.2210   15.2218 C.ar    1  UNL1        0.0999
      4 C          67.4469   92.5887   16.5315 C.ar    1  UNL1        0.0207
      5 C          68.8770   93.0393   16.5738 C.ar    1  UNL1        0.0016
      6 C          69.6751   93.1221   15.3064 C.ar    1  UNL1        0.0016
      7 C          69.0430   92.7544   13.9967 C.ar    1  UNL1        0.0188
      8 C          67.6130   92.3038   13.9544 C.ar    1  UNL1        0.0801
      9 N          66.7272   91.8801   12.8204 N.ar    1  UNL1       -0.2954
     10 C          61.8100   90.1182   11.0451 C.3     1  UNL1        0.1373
     11 C          61.9948   89.6821   12.4684 C.3     1  UNL1        0.0587
     12 C          63.1854   90.1545   13.2489 C.3     1  UNL1        0.0968
     13 N          64.1912   91.0630   12.6063 N.pl3   1  UNL1       -0.2793
     14 C          64.0064   91.4991   11.1831 C.3     1  UNL1        0.0968
     15 C          62.8158   91.0267   10.4025 C.3     1  UNL1        0.0587
     16 C          59.3393   90.4266   10.3032 C.3     1  UNL1        0.2076
     17 N          60.6194   89.6458   10.2645 N.pl3   1  UNL1       -0.1949
     18 C          60.7089   88.3925    9.4453 C.2     1  UNL1        0.4153
     19 N          59.5878   88.0185    8.5216 N.2     1  UNL1       -0.0737
     20 C          59.6773   86.7651    7.7024 C.2     1  UNL1        0.1771
     21 C          60.8880   85.8858    7.8068 C.3     1  UNL1        0.1729
     22 C          62.0092   86.2598    8.7304 C.2     1  UNL1        0.3261
     23 O          63.2199   85.3803    8.8348 O.2     1  UNL1       -0.2529
     24 N          61.9197   87.5130    9.5497 N.am    1  UNL1       -0.0022
     25 C          67.1184   91.8129   11.3739 C.3     1  UNL1        0.1354
     26 C          67.1817   93.0679   10.5549 C.ar    1  UNL1        0.0006
     27 C          66.4152   94.2836   10.9849 C.ar    1  UNL1       -0.0001
     28 C          66.4785   95.5387   10.1660 C.ar    1  UNL1        0.0294
     29 C          67.3082   95.5782    8.9169 C.ar    1  UNL1        0.1401
     30 F          67.3715   96.8333    8.0980 F       1  UNL1       -0.2042
     31 C          68.0746   94.3626    8.4869 C.ar    1  UNL1        0.0294
     32 C          68.0113   93.1075    9.3059 C.ar    1  UNL1       -0.0001
@<TRIPOS>BOND
     1    16    17    1
     2    17    18    1
     3    18    19    1
     4    19    20    2
     5    20    21    1
     6    21    22    1
     7    22    23    2
     8    22    24    1
     9    17    10    1
    10    10    11    1
    11    11    12    1
    12    12    13    1
    13    13     1    1
    14     1     2   ar
    15     2     3   ar
    16     3     4   ar
    17     4     5   ar
    18     5     6   ar
    19     6     7   ar
    20     7     8   ar
    21     8     9   ar
    22     9    25    1
    23    25    26    1
    24    26    27   ar
    25    27    28   ar
    26    28    29   ar
    27    29    30    1
    28    29    31   ar
    29    31    32   ar
    30    13    14    1
    31    14    15    1
    32    24    18    2
    33    15    10    1
    34     9     1   ar
    35    32    26   ar
    36     8     3   ar
@<TRIPOS>MOLECULE
*****
 32 36 0 0 0
SMALL
GASTEIGER

@<TRIPOS>ATOM
      1 C          61.9864   88.5586   11.0554 C.ar    1  UNL1        0.2014
      2 N          60.8293   89.0928   10.2644 N.ar    1  UNL1       -0.2136
      3 C          60.4125   88.0380    9.2827 C.ar    1  UNL1        0.0999
      4 C          59.3301   88.0043    8.2449 C.ar    1  UNL1        0.0207
      5 C          59.1472   86.7845    7.3913 C.ar    1  UNL1        0.0016
      6 C          60.0467   85.5984    7.5756 C.ar    1  UNL1        0.0016
      7 C          61.1291   85.6320    8.6135 C.ar    1  UNL1        0.0188
      8 C          61.3120   86.8518    9.4671 C.ar    1  UNL1        0.0801
      9 N          62.2847   87.1736   10.5626 N.ar    1  UNL1       -0.2954
     10 C          64.1780   90.7296   14.3316 C.3     1  UNL1        0.1373
     11 C          63.7268   91.4740   13.1100 C.3     1  UNL1        0.0587
     12 C          62.9963   90.7503   12.0180 C.3     1  UNL1        0.0968
     13 N          62.7169   89.2822   12.1475 N.pl3   1  UNL1       -0.2793
     14 C          63.1682   88.5379   13.3691 C.3     1  UNL1        0.0968
     15 C          63.8987   89.2616   14.4611 C.3     1  UNL1        0.0587
     16 C          64.2259   91.7229   16.7318 C.3     1  UNL1        0.2076
     17 N          64.9086   91.4533   15.4237 N.pl3   1  UNL1       -0.1949
     18 C          66.3217   91.9074   15.2076 C.2     1  UNL1        0.4153
     19 N          67.0187   92.7171   16.2605 N.2     1  UNL1       -0.0737
     20 C          68.4319   93.1712   16.0444 C.2     1  UNL1        0.1771
     21 C          69.1481   92.8156   14.7753 C.3     1  UNL1        0.1729
     22 C          68.4512   92.0059   13.7224 C.2     1  UNL1        0.3261
     23 O          69.1675   91.6504   12.4532 O.2     1  UNL1       -0.2529
     24 N          67.0380   91.5518   13.9384 N.am    1  UNL1       -0.0022
     25 C          63.3659   86.2691   11.0754 C.3     1  UNL1        0.1354
     26 C          63.0067   85.0242   11.8310 C.ar    1  UNL1        0.0006
     27 C          62.9224   83.7095   11.1137 C.ar    1  UNL1       -0.0001
     28 C          62.5631   82.4645   11.8694 C.ar    1  UNL1        0.0294
     29 C          62.2883   82.5342   13.3423 C.ar    1  UNL1        0.1401
     30 F          61.9291   81.2892   14.0980 F       1  UNL1       -0.2042
     31 C          62.3726   83.8489   14.0596 C.ar    1  UNL1        0.0294
     32 C          62.7318   85.0939   13.3040 C.ar    1  UNL1       -0.0001
@<TRIPOS>BOND
     1    16    17    1
     2    17    18    1
     3    18    19    1
     4    19    20    2
     5    20    21    1
     6    21    22    1
     7    22    23    2
     8    22    24    1
     9    17    10    1
    10    10    11    1
    11    11    12    1
    12    12    13    1
    13    13     1    1
    14     1     2   ar
    15     2     3   ar
    16     3     4   ar
    17     4     5   ar
    18     5     6   ar
    19     6     7   ar
    20     7     8   ar
    21     8     9   ar
    22     9    25    1
    23    25    26    1
    24    26    27   ar
    25    27    28   ar
    26    28    29   ar
    27    29    30    1
    28    29    31   ar
    29    31    32   ar
    30    13    14    1
    31    14    15    1
    32    24    18    2
    33    15    10    1
    34     9     1   ar
    35    32    26   ar
    36     8     3   ar
@<TRIPOS>MOLECULE
*****
 32 36 0 0 0
SMALL
GASTEIGER

@<TRIPOS>ATOM
      1 C          63.5674   85.4106   13.4970 C.ar    1  UNL1        0.2014
      2 N          64.1842   84.2109   14.1531 N.ar    1  UNL1       -0.2136
      3 C          63.7285   82.9904   13.4096 C.ar    1  UNL1        0.0999
      4 C          64.0155   81.5311   13.6044 C.ar    1  UNL1        0.0207
      5 C          63.4042   80.5171   12.6835 C.ar    1  UNL1        0.0016
      6 C          62.5058   80.9625   11.5679 C.ar    1  UNL1        0.0016
      7 C          62.2188   82.4218   11.3731 C.ar    1  UNL1        0.0188
      8 C          62.8301   83.4358   12.2940 C.ar    1  UNL1        0.0801
      9 N          62.7306   84.9315   12.3480 N.ar    1  UNL1       -0.2954
     10 C          64.1292   89.6946   14.7548 C.3     1  UNL1        0.1373
     11 C          64.2886   88.5912   15.7583 C.3     1  UNL1        0.0587
     12 C          64.1014   87.1632   15.3390 C.3     1  UNL1        0.0968
     13 N          63.7547   86.8386   13.9162 N.pl3   1  UNL1       -0.2793
     14 C          63.5953   87.9419   12.9127 C.3     1  UNL1        0.0968
     15 C          63.7825   89.3699   13.3320 C.3     1  UNL1        0.0587
     16 C          63.7856   91.5918   16.4961 C.3     1  UNL1        0.2076
     17 N          64.3164   91.1226   15.1740 N.pl3   1  UNL1       -0.1949
     18 C          65.0344   92.0813   14.2712 C.2     1  UNL1        0.4153
     19 N          66.0064   93.0684   14.8464 N.2     1  UNL1       -0.0737
     20 C          66.7245   94.0272   13.9434 C.2     1  UNL1        0.1771
     21 C          66.4705   93.9988   12.4654 C.3     1  UNL1        0.1729
     22 C          65.4986   93.0117   11.8902 C.2     1  UNL1        0.3261
     23 O          65.2447   92.9834   10.4120 O.2     1  UNL1       -0.2529
     24 N          64.7805   92.0530   12.7930 N.am    1  UNL1       -0.0022
     25 C          61.9341   85.7963   11.4165 C.3     1  UNL1        0.1354
     26 C          61.9741   85.5424    9.9388 C.ar    1  UNL1        0.0006
     27 C          63.1781   84.8950    9.3213 C.ar    1  UNL1       -0.0001
     28 C          63.2182   84.6410    7.8435 C.ar    1  UNL1        0.0294
     29 C          62.0541   85.0345    6.9831 C.ar    1  UNL1        0.1401
     30 F          62.0941   84.7805    5.5053 F       1  UNL1       -0.2042
     31 C          60.8501   85.6818    7.6006 C.ar    1  UNL1        0.0294
     32 C          60.8100   85.9357    9.0784 C.ar    1  UNL1       -0.0001
@<TRIPOS>BOND
     1    16    17    1
     2    17    18    1
     3    18    19    1
     4    19    20    2
     5    20    21    1
     6    21    22    1
     7    22    23    2
     8    22    24    1
     9    17    10    1
    10    10    11    1
    11    11    12    1
    12    12    13    1
    13    13     1    1
    14     1     2   ar
    15     2     3   ar
    16     3     4   ar
    17     4     5   ar
    18     5     6   ar
    19     6     7   ar
    20     7     8   ar
    21     8     9   ar
    22     9    25    1
    23    25    26    1
    24    26    27   ar
    25    27    28   ar
    26    28    29   ar
    27    29    30    1
    28    29    31   ar
    29    31    32   ar
    30    13    14    1
    31    14    15    1
    32    24    18    2
    33    15    10    1
    34     9     1   ar
    35    32    26   ar
    36     8     3   ar
@<TRIPOS>MOLECULE
*****
 32 36 0 0 0
SMALL
GASTEIGER

@<TRIPOS>ATOM
      1 C          64.9847   91.3910   13.1223 C.ar    1  UNL1        0.2014
      2 N          66.2679   92.0240   12.6724 N.ar    1  UNL1       -0.2136
      3 C          67.0689   92.3667   13.8934 C.ar    1  UNL1        0.0999
      4 C          68.4141   93.0079   14.0640 C.ar    1  UNL1        0.0207
      5 C          68.9711   93.2280   15.4393 C.ar    1  UNL1        0.0016
      6 C          68.1828   92.8069   16.6439 C.ar    1  UNL1        0.0016
      7 C          66.8375   92.1657   16.4734 C.ar    1  UNL1        0.0188
      8 C          66.2806   91.9456   15.0981 C.ar    1  UNL1        0.0801
      9 N          64.9925   91.3425   14.6215 N.ar    1  UNL1       -0.2954
     10 C          61.6899   89.8992   10.4449 C.3     1  UNL1        0.1373
     11 C          62.7604   90.7918    9.8907 C.3     1  UNL1        0.0587
     12 C          63.8587   91.2890   10.7832 C.3     1  UNL1        0.0968
     13 N          63.8864   90.8937   12.2298 N.pl3   1  UNL1       -0.2793
     14 C          62.8158   90.0011   12.7840 C.3     1  UNL1        0.0968
     15 C          61.7176   89.5039   11.8915 C.3     1  UNL1        0.0587
     16 C          59.3856   90.2572    9.2994 C.3     1  UNL1        0.2076
     17 N          60.5916   89.4019    9.5524 N.pl3   1  UNL1       -0.1949
     18 C          60.6993   88.0494    8.9128 C.2     1  UNL1        0.4153
     19 N          59.5906   87.5425    8.0390 N.2     1  UNL1       -0.0737
     20 C          59.6984   86.1899    7.3994 C.2     1  UNL1        0.1771
     21 C          60.9149   85.3443    7.6338 C.3     1  UNL1        0.1729
     22 C          62.0237   85.8512    8.5076 C.2     1  UNL1        0.3261
     23 O          63.2402   85.0055    8.7419 O.2     1  UNL1       -0.2529
     24 N          61.9159   87.2037    9.1471 N.am    1  UNL1       -0.0022
     25 C          63.9034   90.7884   15.4915 C.3     1  UNL1        0.1354
     26 C          63.8039   89.3089   15.7177 C.ar    1  UNL1        0.0006
     27 C          64.4818   88.3588   14.7754 C.ar    1  UNL1       -0.0001
     28 C          64.3822   86.8793   15.0015 C.ar    1  UNL1        0.0294
     29 C          63.6048   86.3499   16.1700 C.ar    1  UNL1        0.1401
     30 F          63.5053   84.8704   16.3962 F       1  UNL1       -0.2042
     31 C          62.9269   87.2999   17.1123 C.ar    1  UNL1        0.0294
     32 C          63.0264   88.7794   16.8861 C.ar    1  UNL1       -0.0001
@<TRIPOS>BOND
     1    16    17    1
     2    17    18    1
     3    18    19    1
     4    19    20    2
     5    20    21    1
     6    21    22    1
     7    22    23    2
     8    22    24    1
     9    17    10    1
    10    10    11    1
    11    11    12    1
    12    12    13    1
    13    13     1    1
    14     1     2   ar
    15     2     3   ar
    16     3     4   ar
    17     4     5   ar
    18     5     6   ar
    19     6     7   ar
    20     7     8   ar
    21     8     9   ar
    22     9    25    1
    23    25    26    1
    24    26    27   ar
    25    27    28   ar
    26    28    29   ar
    27    29    30    1
    28    29    31   ar
    29    31    32   ar
    30    13    14    1
    31    14    15    1
    32    24    18    2
    33    15    10    1
    34     9     1   ar
    35    32    26   ar
    36     8     3   ar
@<TRIPOS>MOLECULE
*****
 32 36 0 0 0
SMALL
GASTEIGER

@<TRIPOS>ATOM
      1 C          62.0191   89.7491    9.9242 C.ar    1  UNL1        0.2014
      2 N          61.0881   90.1247    8.8097 N.ar    1  UNL1       -0.2136
      3 C          60.2865   88.9101    8.4460 C.ar    1  UNL1        0.0999
      4 C          59.2163   88.6842    7.4196 C.ar    1  UNL1        0.0207
      5 C          58.5817   87.3320    7.2829 C.ar    1  UNL1        0.0016
      6 C          59.0174   86.2057    8.1727 C.ar    1  UNL1        0.0016
      7 C          60.0876   86.4316    9.1991 C.ar    1  UNL1        0.0188
      8 C          60.7222   87.7838    9.3358 C.ar    1  UNL1        0.0801
      9 N          61.7929   88.3024   10.2493 N.ar    1  UNL1       -0.2954
     10 C          64.9720   92.4826   11.9388 C.3     1  UNL1        0.1373
     11 C          64.2490   91.4396   12.7384 C.3     1  UNL1        0.0587
     12 C          63.2647   90.5285   12.0669 C.3     1  UNL1        0.0968
     13 N          63.0034   90.6603   10.5958 N.pl3   1  UNL1       -0.2793
     14 C          63.7263   91.7033    9.7961 C.3     1  UNL1        0.0968
     15 C          64.7106   92.6144   10.4676 C.3     1  UNL1        0.0587
     16 C          66.4004   94.6527   11.9264 C.3     1  UNL1        0.2076
     17 N          65.9563   93.3938   12.6103 N.pl3   1  UNL1       -0.1949
     18 C          66.4964   93.0461   13.9658 C.2     1  UNL1        0.4153
     19 N          67.9717   92.8559   14.1591 N.2     1  UNL1       -0.0737
     20 C          68.5117   92.5081   15.5146 C.2     1  UNL1        0.1771
     21 C          67.5766   92.3506   16.6768 C.3     1  UNL1        0.1729
     22 C          66.1013   92.5408   16.4834 C.2     1  UNL1        0.3261
     23 O          65.1661   92.3833   17.6457 O.2     1  UNL1       -0.2529
     24 N          65.5612   92.8885   15.1280 N.am    1  UNL1       -0.0022
     25 C          62.5114   87.5127   11.3030 C.3     1  UNL1        0.1354
     26 C          62.7375   86.0420   11.1144 C.ar    1  UNL1        0.0006
     27 C          63.1291   85.5100    9.7677 C.ar    1  UNL1       -0.0001
     28 C          63.3553   84.0392    9.5790 C.ar    1  UNL1        0.0294
     29 C          63.1897   83.1003   10.7371 C.ar    1  UNL1        0.1401
     30 F          63.4159   81.6295   10.5484 F       1  UNL1       -0.2042
     31 C          62.7981   83.6323   12.0838 C.ar    1  UNL1        0.0294
     32 C          62.5720   85.1030   12.2725 C.ar    1  UNL1       -0.0001
@<TRIPOS>BOND
     1    16    17    1
     2    17    18    1
     3    18    19    1
     4    19    20    2
     5    20    21    1
     6    21    22    1
     7    22    23    2
     8    22    24    1
     9    17    10    1
    10    10    11    1
    11    11    12    1
    12    12    13    1
    13    13     1    1
    14     1     2   ar
    15     2     3   ar
    16     3     4   ar
    17     4     5   ar
    18     5     6   ar
    19     6     7   ar
    20     7     8   ar
    21     8     9   ar
    22     9    25    1
    23    25    26    1
    24    26    27   ar
    25    27    28   ar
    26    28    29   ar
    27    29    30    1
    28    29    31   ar
    29    31    32   ar
    30    13    14    1
    31    14    15    1
    32    24    18    2
    33    15    10    1
    34     9     1   ar
    35    32    26   ar
    36     8     3   ar
@<TRIPOS>MOLECULE
*****
 32 36 0 0 0
SMALL
GASTEIGER

@<TRIPOS>ATOM
      1 C          64.4481   90.8752   12.9689 C.ar    1  UNL1        0.2014
      2 N          65.5859   91.7535   12.5400 N.ar    1  UNL1       -0.2136
      3 C          66.2110   92.3371   13.7724 C.ar    1  UNL1        0.0999
      4 C          67.3674   93.2730   13.9643 C.ar    1  UNL1        0.0207
      5 C          67.7724   93.6912   15.3467 C.ar    1  UNL1        0.0016
      6 C          67.0209   93.1735   16.5372 C.ar    1  UNL1        0.0016
      7 C          65.8645   92.2376   16.3453 C.ar    1  UNL1        0.0188
      8 C          65.4596   91.8194   14.9629 C.ar    1  UNL1        0.0801
      9 N          64.3700   90.9159   14.4663 N.ar    1  UNL1       -0.2954
     10 C          61.7437   88.5299   10.2420 C.3     1  UNL1        0.1373
     11 C          62.4194   87.8490   11.3952 C.3     1  UNL1        0.0587
     12 C          63.3209   88.6308   12.3042 C.3     1  UNL1        0.0968
     13 N          63.5466   90.0934   12.0599 N.pl3   1  UNL1       -0.2793
     14 C          62.8710   90.7743   10.9067 C.3     1  UNL1        0.0968
     15 C          61.9695   89.9925    9.9978 C.3     1  UNL1        0.0587
     16 C          59.3943   88.1202    9.2114 C.3     1  UNL1        0.2076
     17 N          60.8423   87.7481    9.3331 N.pl3   1  UNL1       -0.1949
     18 C          61.3888   86.5942    8.5458 C.2     1  UNL1        0.4153
     19 N          62.7573   86.0603    8.8494 N.2     1  UNL1       -0.0737
     20 C          63.3038   84.9063    8.0620 C.2     1  UNL1        0.1771
     21 C          62.4818   84.2863    6.9712 C.3     1  UNL1        0.1729
     22 C          61.1133   84.8202    6.6677 C.2     1  UNL1        0.3261
     23 O          60.2913   84.2002    5.5768 O.2     1  UNL1       -0.2529
     24 N          60.5668   85.9741    7.4549 N.am    1  UNL1       -0.0022
     25 C          63.3768   90.1820   15.3177 C.3     1  UNL1        0.1354
     26 C          63.5602   88.7188   15.5917 C.ar    1  UNL1        0.0006
     27 C          62.8775   88.0845   16.7672 C.ar    1  UNL1       -0.0001
     28 C          63.0608   86.6212   17.0412 C.ar    1  UNL1        0.0294
     29 C          63.9268   85.7921   16.1397 C.ar    1  UNL1        0.1401
     30 F          64.1102   84.3288   16.4138 F       1  UNL1       -0.2042
     31 C          64.6095   86.4263   14.9643 C.ar    1  UNL1        0.0294
     32 C          64.4262   87.8896   14.6902 C.ar    1  UNL1       -0.0001
@<TRIPOS>BOND
     1    16    17    1
     2    17    18    1
     3    18    19    1
     4    19    20    2
     5    20    21    1
     6    21    22    1
     7    22    23    2
     8    22    24    1
     9    17    10    1
    10    10    11    1
    11    11    12    1
    12    12    13    1
    13    13     1    1
    14     1     2   ar
    15     2     3   ar
    16     3     4   ar
    17     4     5   ar
    18     5     6   ar
    19     6     7   ar
    20     7     8   ar
    21     8     9   ar
    22     9    25    1
    23    25    26    1
    24    26    27   ar
    25    27    28   ar
    26    28    29   ar
    27    29    30    1
    28    29    31   ar
    29    31    32   ar
    30    13    14    1
    31    14    15    1
    32    24    18    2
    33    15    10    1
    34     9     1   ar
    35    32    26   ar
    36     8     3   ar
