@<TRIPOS>MOLECULE
*****
 23 25 0 0 0
SMALL
GASTEIGER

@<TRIPOS>ATOM
      1 O          63.1970   88.3914   16.4421 O.2     1  UNL1       -0.2701
      2 C          63.8739   88.1332   15.1286 C.2     1  UNL1        0.2459
      3 N          64.3099   86.7436   14.7700 N.am    1  UNL1       -0.3005
      4 H          64.7541   86.5741   13.9079 H       1  UNL1        0.1498
      5 C          64.1149   89.2648   14.1739 C.ar    1  UNL1        0.0534
      6 C          63.3963   89.3016   12.8577 C.ar    1  UNL1        0.0045
      7 C          63.6373   90.4331   11.9030 C.ar    1  UNL1        0.0002
      8 C          64.5969   91.5279   12.2645 C.ar    1  UNL1        0.0005
      9 C          64.8379   92.6595   11.3097 C.ar    1  UNL1        0.0067
     10 C          65.7974   93.7543   11.6712 C.ar    1  UNL1        0.0346
     11 BR         66.0384   94.8859   10.7165 Br      1  UNL1       -0.0490
     12 C          66.5160   93.7176   12.9874 C.ar    1  UNL1        0.0067
     13 C          66.2750   92.5860   13.9421 C.ar    1  UNL1        0.0005
     14 C          65.3154   91.4912   13.5806 C.ar    1  UNL1        0.0002
     15 C          65.0744   90.3597   14.5353 C.ar    1  UNL1        0.0045
     16 C          64.0689   85.6120   15.7247 C.3     1  UNL1        0.0960
     17 C          62.7869   84.8360   15.6598 C.3     1  UNL1        0.0664
     18 C          62.6484   83.6959   14.6949 C.ar    1  UNL1        0.0558
     19 C          62.7444   83.7886   13.2009 C.ar    1  UNL1        0.1131
     20 N          62.5450   82.4129   12.6372 N.ar    1  UNL1       -0.2229
     21 C          62.3258   81.4699   13.7830 C.ar    1  UNL1        0.1748
     22 N          62.3897   82.2629   15.0547 N.ar    1  UNL1       -0.3381
     23 H          62.2809   81.9055   15.9656 H       1  UNL1        0.1672
@<TRIPOS>BOND
     1     1     2    2
     2     2     3   am
     3     3    16    1
     4    16    17    1
     5    17    18    1
     6    18    19   ar
     7    19    20   ar
     8    20    21   ar
     9    21    22   ar
    10     2     5    1
    11     5     6   ar
    12     6     7   ar
    13     7     8   ar
    14     8     9   ar
    15     9    10   ar
    16    10    11    1
    17    10    12   ar
    18    12    13   ar
    19    13    14   ar
    20    14    15   ar
    21    22    18   ar
    22    15     5   ar
    23    14     8   ar
    24     3     4    1
    25    22    23    1
@<TRIPOS>MOLECULE
*****
 23 25 0 0 0
SMALL
GASTEIGER

@<TRIPOS>ATOM
      1 O          62.1229   87.9973   11.5595 O.2     1  UNL1       -0.2701
      2 C          62.2008   89.4600   11.8827 C.2     1  UNL1        0.2459
      3 N          61.1356   90.3945   11.3908 N.am    1  UNL1       -0.3005
      4 H          61.1867   91.3545   11.6029 H       1  UNL1        0.1498
      5 C          63.3439   89.9882   12.6978 C.ar    1  UNL1        0.0534
      6 C          63.8417   89.2136   13.8818 C.ar    1  UNL1        0.0045
      7 C          64.9848   89.7418   14.6969 C.ar    1  UNL1        0.0002
      8 C          65.6301   91.0447   14.3278 C.ar    1  UNL1        0.0005
      9 C          66.7732   91.5729   15.1429 C.ar    1  UNL1        0.0067
     10 C          67.4185   92.8757   14.7739 C.ar    1  UNL1        0.0346
     11 BR         68.5615   93.4039   15.5889 Br      1  UNL1       -0.0490
     12 C          66.9206   93.6504   13.5898 C.ar    1  UNL1        0.0067
     13 C          65.7775   93.1222   12.7747 C.ar    1  UNL1        0.0005
     14 C          65.1323   91.8193   13.1438 C.ar    1  UNL1        0.0002
     15 C          63.9892   91.2911   12.3287 C.ar    1  UNL1        0.0045
     16 C          59.9924   89.8663   10.5757 C.3     1  UNL1        0.0960
     17 C          60.1786   89.5905    9.1131 C.3     1  UNL1        0.0664
     18 C          60.1477   88.1791    8.6062 C.ar    1  UNL1        0.0558
     19 C          59.1145   87.5938    7.6897 C.ar    1  UNL1        0.1131
     20 N          59.4728   86.1582    7.4438 N.ar    1  UNL1       -0.2229
     21 C          60.7276   85.8562    8.2084 C.ar    1  UNL1        0.1748
     22 N          61.1446   87.1052    8.9267 N.ar    1  UNL1       -0.3381
     23 H          61.9341   87.2029    9.5068 H       1  UNL1        0.1672
@<TRIPOS>BOND
     1     1     2    2
     2     2     3   am
     3     3    16    1
     4    16    17    1
     5    17    18    1
     6    18    19   ar
     7    19    20   ar
     8    20    21   ar
     9    21    22   ar
    10     2     5    1
    11     5     6   ar
    12     6     7   ar
    13     7     8   ar
    14     8     9   ar
    15     9    10   ar
    16    10    11    1
    17    10    12   ar
    18    12    13   ar
    19    13    14   ar
    20    14    15   ar
    21    22    18   ar
    22    15     5   ar
    23    14     8   ar
    24     3     4    1
    25    22    23    1
@<TRIPOS>MOLECULE
*****
 23 25 0 0 0
SMALL
GASTEIGER

@<TRIPOS>ATOM
      1 O          60.3192   89.5915   11.7269 O.2     1  UNL1       -0.2701
      2 C          61.4222   89.9870   10.7904 C.2     1  UNL1        0.2459
      3 N          61.2852   89.7295    9.3190 N.am    1  UNL1       -0.3005
      4 H          62.0091   89.9891    8.7044 H       1  UNL1        0.1498
      5 C          62.6622   90.6398   11.3253 C.ar    1  UNL1        0.0534
      6 C          63.5240   91.4685   10.4194 C.ar    1  UNL1        0.0045
      7 C          64.7640   92.1213   10.9544 C.ar    1  UNL1        0.0002
      8 C          65.1422   91.9455   12.3953 C.ar    1  UNL1        0.0005
      9 C          66.3822   92.5984   12.9302 C.ar    1  UNL1        0.0067
     10 C          66.7604   92.4226   14.3710 C.ar    1  UNL1        0.0346
     11 BR         68.0004   93.0754   14.9060 Br      1  UNL1       -0.0490
     12 C          65.8986   91.5939   15.2770 C.ar    1  UNL1        0.0067
     13 C          64.6586   90.9411   14.7420 C.ar    1  UNL1        0.0005
     14 C          64.2804   91.1169   13.3011 C.ar    1  UNL1        0.0002
     15 C          63.0404   90.4640   12.7662 C.ar    1  UNL1        0.0045
     16 C          60.0451   89.0767    8.7841 C.3     1  UNL1        0.0960
     17 C          59.9317   87.5811    8.7693 C.3     1  UNL1        0.0664
     18 C          60.8630   86.7501    9.6012 C.ar    1  UNL1        0.0558
     19 C          62.0025   85.9210    9.0872 C.ar    1  UNL1        0.1131
     20 N          62.6620   85.2607   10.2615 N.ar    1  UNL1       -0.2229
     21 C          61.9301   85.6818   11.5013 C.ar    1  UNL1        0.1748
     22 N          60.8182   86.6022   11.0932 N.ar    1  UNL1       -0.3381
     23 H          60.1725   87.0335   11.6983 H       1  UNL1        0.1672
@<TRIPOS>BOND
     1     1     2    2
     2     2     3   am
     3     3    16    1
     4    16    17    1
     5    17    18    1
     6    18    19   ar
     7    19    20   ar
     8    20    21   ar
     9    21    22   ar
    10     2     5    1
    11     5     6   ar
    12     6     7   ar
    13     7     8   ar
    14     8     9   ar
    15     9    10   ar
    16    10    11    1
    17    10    12   ar
    18    12    13   ar
    19    13    14   ar
    20    14    15   ar
    21    22    18   ar
    22    15     5   ar
    23    14     8   ar
    24     3     4    1
    25    22    23    1
@<TRIPOS>MOLECULE
*****
 23 25 0 0 0
SMALL
GASTEIGER

@<TRIPOS>ATOM
      1 O          63.5397   91.1602   15.5753 O.2     1  UNL1       -0.2701
      2 C          64.4560   90.4911   14.5941 C.2     1  UNL1        0.2459
      3 N          65.7675   91.1266   14.2389 N.am    1  UNL1       -0.3005
      4 H          66.3688   90.6874   13.5949 H       1  UNL1        0.1498
      5 C          64.0608   89.1865   13.9682 C.ar    1  UNL1        0.0534
      6 C          63.3005   89.1748   12.6752 C.ar    1  UNL1        0.0045
      7 C          62.9053   87.8702   12.0494 C.ar    1  UNL1        0.0002
      8 C          63.2704   86.5772   12.7165 C.ar    1  UNL1        0.0005
      9 C          62.8752   85.2726   12.0905 C.ar    1  UNL1        0.0067
     10 C          63.2403   83.9796   12.7576 C.ar    1  UNL1        0.0346
     11 BR         62.8451   82.6750   12.1317 Br      1  UNL1       -0.0490
     12 C          64.0006   83.9914   14.0506 C.ar    1  UNL1        0.0067
     13 C          64.3958   85.2960   14.6765 C.ar    1  UNL1        0.0005
     14 C          64.0307   86.5889   14.0094 C.ar    1  UNL1        0.0002
     15 C          64.4259   87.8935   14.6353 C.ar    1  UNL1        0.0045
     16 C          66.1627   92.4313   14.8648 C.3     1  UNL1        0.0960
     17 C          66.6205   93.5691   14.0014 C.3     1  UNL1        0.0664
     18 C          66.6937   93.3988   12.5129 C.ar    1  UNL1        0.0558
     19 C          65.8994   94.1657   11.4975 C.ar    1  UNL1        0.1131
     20 N          66.2889   93.6725   10.1355 N.ar    1  UNL1       -0.2229
     21 C          67.3240   92.6008   10.3092 C.ar    1  UNL1        0.1748
     22 N          67.5742   92.4317   11.7784 N.ar    1  UNL1       -0.3381
     23 H          68.2054   91.7973   12.1887 H       1  UNL1        0.1672
@<TRIPOS>BOND
     1     1     2    2
     2     2     3   am
     3     3    16    1
     4    16    17    1
     5    17    18    1
     6    18    19   ar
     7    19    20   ar
     8    20    21   ar
     9    21    22   ar
    10     2     5    1
    11     5     6   ar
    12     6     7   ar
    13     7     8   ar
    14     8     9   ar
    15     9    10   ar
    16    10    11    1
    17    10    12   ar
    18    12    13   ar
    19    13    14   ar
    20    14    15   ar
    21    22    18   ar
    22    15     5   ar
    23    14     8   ar
    24     3     4    1
    25    22    23    1
@<TRIPOS>MOLECULE
*****
 23 25 0 0 0
SMALL
GASTEIGER

@<TRIPOS>ATOM
      1 O          59.6333   89.9881   11.0724 O.2     1  UNL1       -0.2701
      2 C          60.8796   90.0733   10.2420 C.2     1  UNL1        0.2459
      3 N          60.8557   89.6381    8.8067 N.am    1  UNL1       -0.3005
      4 H          61.6736   89.6940    8.2617 H       1  UNL1        0.1498
      5 C          62.1498   90.5937   10.8468 C.ar    1  UNL1        0.0534
      6 C          63.0737   91.4486   10.0311 C.ar    1  UNL1        0.0045
      7 C          64.3439   91.9690   10.6360 C.ar    1  UNL1        0.0002
      8 C          64.6900   91.6345   12.0566 C.ar    1  UNL1        0.0005
      9 C          65.9602   92.1550   12.6615 C.ar    1  UNL1        0.0067
     10 C          66.3064   91.8205   14.0822 C.ar    1  UNL1        0.0346
     11 BR         67.5765   92.3409   14.6871 Br      1  UNL1       -0.0490
     12 C          65.3823   90.9657   14.8980 C.ar    1  UNL1        0.0067
     13 C          64.1122   90.4453   14.2931 C.ar    1  UNL1        0.0005
     14 C          63.7661   90.7797   12.8724 C.ar    1  UNL1        0.0002
     15 C          62.4959   90.2593   12.2675 C.ar    1  UNL1        0.0045
     16 C          59.5855   89.1177    8.2018 C.3     1  UNL1        0.0960
     17 C          59.4558   89.0042    6.7118 C.3     1  UNL1        0.0664
     18 C          59.1870   90.2280    5.8871 C.ar    1  UNL1        0.0558
     19 C          57.8354   90.7827    5.5472 C.ar    1  UNL1        0.1131
     20 N          58.0356   92.0095    4.7075 N.ar    1  UNL1       -0.2229
     21 C          59.5110   92.2128    4.5285 C.ar    1  UNL1        0.1748
     22 N          60.2225   91.1118    5.2575 N.ar    1  UNL1       -0.3381
     23 H          61.1979   90.9906    5.3130 H       1  UNL1        0.1672
@<TRIPOS>BOND
     1     1     2    2
     2     2     3   am
     3     3    16    1
     4    16    17    1
     5    17    18    1
     6    18    19   ar
     7    19    20   ar
     8    20    21   ar
     9    21    22   ar
    10     2     5    1
    11     5     6   ar
    12     6     7   ar
    13     7     8   ar
    14     8     9   ar
    15     9    10   ar
    16    10    11    1
    17    10    12   ar
    18    12    13   ar
    19    13    14   ar
    20    14    15   ar
    21    22    18   ar
    22    15     5   ar
    23    14     8   ar
    24     3     4    1
    25    22    23    1
@<TRIPOS>MOLECULE
*****
 23 25 0 0 0
SMALL
GASTEIGER

@<TRIPOS>ATOM
      1 O          61.7324   90.0024   10.4086 O.2     1  UNL1       -0.2701
      2 C          62.3851   89.1873   11.4855 C.2     1  UNL1        0.2459
      3 N          62.0236   87.7415   11.6550 N.am    1  UNL1       -0.3005
      4 H          62.4519   87.2065   12.3618 H       1  UNL1        0.1498
      5 C          63.3994   89.8182   12.3929 C.ar    1  UNL1        0.0534
      6 C          63.7948   89.1328   13.6672 C.ar    1  UNL1        0.0045
      7 C          64.8090   89.7637   14.5745 C.ar    1  UNL1        0.0002
      8 C          65.4278   91.0799   14.2076 C.ar    1  UNL1        0.0005
      9 C          66.4420   91.7108   15.1150 C.ar    1  UNL1        0.0067
     10 C          67.0608   93.0270   14.7481 C.ar    1  UNL1        0.0346
     11 BR         68.0750   93.6579   15.6555 Br      1  UNL1       -0.0490
     12 C          66.6653   93.7124   13.4738 C.ar    1  UNL1        0.0067
     13 C          65.6510   93.0816   12.5664 C.ar    1  UNL1        0.0005
     14 C          65.0323   91.7653   12.9333 C.ar    1  UNL1        0.0002
     15 C          64.0181   91.1344   12.0260 C.ar    1  UNL1        0.0045
     16 C          61.0093   87.1106   10.7475 C.3     1  UNL1        0.0960
     17 C          61.4209   86.0149    9.8094 C.3     1  UNL1        0.0664
     18 C          62.3975   84.9694   10.2599 C.ar    1  UNL1        0.0558
     19 C          62.5250   84.4229   11.6510 C.ar    1  UNL1        0.1131
     20 N          63.6245   83.4026   11.6493 N.ar    1  UNL1       -0.2229
     21 C          64.1765   83.3184   10.2571 C.ar    1  UNL1        0.1748
     22 N          63.4182   84.2868    9.3984 N.ar    1  UNL1       -0.3381
     23 H          63.5647   84.4463    8.4380 H       1  UNL1        0.1672
@<TRIPOS>BOND
     1     1     2    2
     2     2     3   am
     3     3    16    1
     4    16    17    1
     5    17    18    1
     6    18    19   ar
     7    19    20   ar
     8    20    21   ar
     9    21    22   ar
    10     2     5    1
    11     5     6   ar
    12     6     7   ar
    13     7     8   ar
    14     8     9   ar
    15     9    10   ar
    16    10    11    1
    17    10    12   ar
    18    12    13   ar
    19    13    14   ar
    20    14    15   ar
    21    22    18   ar
    22    15     5   ar
    23    14     8   ar
    24     3     4    1
    25    22    23    1
@<TRIPOS>MOLECULE
*****
 23 25 0 0 0
SMALL
GASTEIGER

@<TRIPOS>ATOM
      1 O          63.3579   89.3563   12.3070 O.2     1  UNL1       -0.2701
      2 C          63.9642   88.7220   13.5236 C.2     1  UNL1        0.2459
      3 N          64.6651   89.5715   14.5419 N.am    1  UNL1       -0.3005
      4 H          65.0630   89.1552   15.3404 H       1  UNL1        0.1498
      5 C          63.8695   87.2381   13.7219 C.ar    1  UNL1        0.0534
      6 C          64.3554   86.6196   14.9991 C.ar    1  UNL1        0.0045
      7 C          64.2607   85.1358   15.1973 C.ar    1  UNL1        0.0002
      8 C          63.6802   84.2705   14.1183 C.ar    1  UNL1        0.0005
      9 C          63.5856   82.7867   14.3165 C.ar    1  UNL1        0.0067
     10 C          63.0051   81.9214   13.2375 C.ar    1  UNL1        0.0346
     11 BR         62.9104   80.4376   13.4357 Br      1  UNL1       -0.0490
     12 C          62.5192   82.5400   11.9602 C.ar    1  UNL1        0.0067
     13 C          62.6138   84.0238   11.7620 C.ar    1  UNL1        0.0005
     14 C          63.1944   84.8890   12.8410 C.ar    1  UNL1        0.0002
     15 C          63.2890   86.3728   12.6428 C.ar    1  UNL1        0.0045
     16 C          64.7597   91.0554   14.3436 C.3     1  UNL1        0.0960
     17 C          65.3043   91.9250   15.4378 C.3     1  UNL1        0.0664
     18 C          66.7120   92.4369   15.3584 C.ar    1  UNL1        0.0558
     19 C          67.7523   92.0061   14.3673 C.ar    1  UNL1        0.1131
     20 N          69.0098   92.7723   14.6526 N.ar    1  UNL1       -0.2229
     21 C          68.7467   93.6767   15.8201 C.ar    1  UNL1        0.1748
     22 N          67.3266   93.4693   16.2563 N.ar    1  UNL1       -0.3381
     23 H          66.8769   93.9300   17.0011 H       1  UNL1        0.1672
@<TRIPOS>BOND
     1     1     2    2
     2     2     3   am
     3     3    16    1
     4    16    17    1
     5    17    18    1
     6    18    19   ar
     7    19    20   ar
     8    20    21   ar
     9    21    22   ar
    10     2     5    1
    11     5     6   ar
    12     6     7   ar
    13     7     8   ar
    14     8     9   ar
    15     9    10   ar
    16    10    11    1
    17    10    12   ar
    18    12    13   ar
    19    13    14   ar
    20    14    15   ar
    21    22    18   ar
    22    15     5   ar
    23    14     8   ar
    24     3     4    1
    25    22    23    1
@<TRIPOS>MOLECULE
*****
 23 25 0 0 0
SMALL
GASTEIGER

@<TRIPOS>ATOM
      1 O          63.4123   90.7797   15.0339 O.2     1  UNL1       -0.2701
      2 C          63.9065   90.6631   13.6224 C.2     1  UNL1        0.2459
      3 N          65.0657   91.4965   13.1624 N.am    1  UNL1       -0.3005
      4 H          65.3900   91.4199   12.2360 H       1  UNL1        0.1498
      5 C          63.2413   89.7132   12.6709 C.ar    1  UNL1        0.0534
      6 C          63.4835   88.2378   12.7923 C.ar    1  UNL1        0.0045
      7 C          62.8183   87.2880   11.8408 C.ar    1  UNL1        0.0002
      8 C          61.9111   87.8134   10.7681 C.ar    1  UNL1        0.0005
      9 C          61.2459   86.8634    9.8166 C.ar    1  UNL1        0.0067
     10 C          60.3387   87.3889    8.7438 C.ar    1  UNL1        0.0346
     11 BR         59.6736   86.4390    7.7924 Br      1  UNL1       -0.0490
     12 C          60.0966   88.8643    8.6225 C.ar    1  UNL1        0.0067
     13 C          60.7617   89.8141    9.5740 C.ar    1  UNL1        0.0005
     14 C          61.6690   89.2887   10.6467 C.ar    1  UNL1        0.0002
     15 C          62.3341   90.2386   11.5982 C.ar    1  UNL1        0.0045
     16 C          65.7309   92.4464   14.1139 C.3     1  UNL1        0.0960
     17 C          66.4876   93.6292   13.5864 C.3     1  UNL1        0.0664
     18 C          66.5877   93.8565   12.1071 C.ar    1  UNL1        0.0558
     19 C          66.0381   95.0333   11.3566 C.ar    1  UNL1        0.1131
     20 N          66.3658   94.8509    9.9043 N.ar    1  UNL1       -0.2229
     21 C          67.1179   93.5614    9.7571 C.ar    1  UNL1        0.1748
     22 N          67.2550   92.9469   11.1185 N.ar    1  UNL1       -0.3381
     23 H          67.7042   92.0959   11.3267 H       1  UNL1        0.1672
@<TRIPOS>BOND
     1     1     2    2
     2     2     3   am
     3     3    16    1
     4    16    17    1
     5    17    18    1
     6    18    19   ar
     7    19    20   ar
     8    20    21   ar
     9    21    22   ar
    10     2     5    1
    11     5     6   ar
    12     6     7   ar
    13     7     8   ar
    14     8     9   ar
    15     9    10   ar
    16    10    11    1
    17    10    12   ar
    18    12    13   ar
    19    13    14   ar
    20    14    15   ar
    21    22    18   ar
    22    15     5   ar
    23    14     8   ar
    24     3     4    1
    25    22    23    1
@<TRIPOS>MOLECULE
*****
 23 25 0 0 0
SMALL
GASTEIGER

@<TRIPOS>ATOM
      1 O          63.2951   90.0599   11.9910 O.2     1  UNL1       -0.2701
      2 C          63.6072   89.0288   13.0348 C.2     1  UNL1        0.2459
      3 N          64.1863   89.4479   14.3535 N.am    1  UNL1       -0.3005
      4 H          64.3911   88.7711   15.0385 H       1  UNL1        0.1498
      5 C          63.3403   87.5786   12.7597 C.ar    1  UNL1        0.0534
      6 C          62.5704   87.1764   11.5368 C.ar    1  UNL1        0.0045
      7 C          62.3035   85.7263   11.2619 C.ar    1  UNL1        0.0002
      8 C          62.8065   84.6782   12.2098 C.ar    1  UNL1        0.0005
      9 C          62.5396   83.2279   11.9347 C.ar    1  UNL1        0.0067
     10 C          63.0426   82.1799   12.8827 C.ar    1  UNL1        0.0346
     11 BR         62.7757   80.7297   12.6077 Br      1  UNL1       -0.0490
     12 C          63.8125   82.5820   14.1056 C.ar    1  UNL1        0.0067
     13 C          64.0794   84.0322   14.3806 C.ar    1  UNL1        0.0005
     14 C          63.5764   85.0803   13.4327 C.ar    1  UNL1        0.0002
     15 C          63.8433   86.5305   13.7077 C.ar    1  UNL1        0.0045
     16 C          64.4532   90.8982   14.6285 C.3     1  UNL1        0.0960
     17 C          65.7808   91.4975   14.2705 C.3     1  UNL1        0.0664
     18 C          65.8776   92.4914   13.1512 C.ar    1  UNL1        0.0558
     19 C          66.5455   93.8328   13.2185 C.ar    1  UNL1        0.1131
     20 N          66.4042   94.4889   11.8771 N.ar    1  UNL1       -0.2229
     21 C          65.6488   93.5529   10.9806 C.ar    1  UNL1        0.1748
     22 N          65.3234   92.3184   11.7681 N.ar    1  UNL1       -0.3381
     23 H          64.8323   91.5326   11.4356 H       1  UNL1        0.1672
@<TRIPOS>BOND
     1     1     2    2
     2     2     3   am
     3     3    16    1
     4    16    17    1
     5    17    18    1
     6    18    19   ar
     7    19    20   ar
     8    20    21   ar
     9    21    22   ar
    10     2     5    1
    11     5     6   ar
    12     6     7   ar
    13     7     8   ar
    14     8     9   ar
    15     9    10   ar
    16    10    11    1
    17    10    12   ar
    18    12    13   ar
    19    13    14   ar
    20    14    15   ar
    21    22    18   ar
    22    15     5   ar
    23    14     8   ar
    24     3     4    1
    25    22    23    1
