@<TRIPOS>MOLECULE
*****
 30 33 0 0 0
SMALL
GASTEIGER

@<TRIPOS>ATOM
      1 C          63.3687   83.7946   13.1651 C.ar    1  UNL1        0.1311
      2 C          62.3158   84.8347   12.9208 C.ar    1  UNL1        0.0339
      3 C          62.0443   85.3136   11.5255 C.ar    1  UNL1        0.0027
      4 C          62.8256   84.7525   10.3746 C.ar    1  UNL1        0.0283
      5 C          63.8785   83.7124   10.6189 C.ar    1  UNL1        0.2196
      6 F          64.6599   83.1513    9.4679 F       1  UNL1       -0.1835
      7 N          64.1500   83.2335   12.0142 N.ar    1  UNL1       -0.2035
      8 N          63.6403   83.3157   14.5604 N.pl3   1  UNL1       -0.3144
      9 H          63.2916   82.4446   14.8584 H       1  UNL1        0.1485
     10 C          64.4433   84.1639   15.5017 C.3     1  UNL1        0.1169
     11 C          63.4247   88.5143   16.0359 C.ar    1  UNL1        0.2250
     12 C          64.3107   88.0850   14.9043 C.ar    1  UNL1        0.0574
     13 C          64.6502   86.6348   14.7262 C.ar    1  UNL1        0.0037
     14 C          64.1037   85.6140   15.6798 C.ar    1  UNL1        0.0168
     15 C          63.2177   86.0434   16.8115 C.ar    1  UNL1        0.0994
     16 N          62.8782   87.4935   16.9895 N.ar    1  UNL1       -0.2104
     17 C          63.9912   91.0211   15.6548 C.3     1  UNL1        0.2542
     18 O          63.0852   89.9645   16.2141 O.3     1  UNL1       -0.4561
     19 C          62.5541   85.2315    8.9792 C.3     1  UNL1        0.0582
     20 C          61.5337   86.3046    8.7399 C.ar    1  UNL1        0.0044
     21 C          60.3352   86.1978    7.8442 C.ar    1  UNL1        0.0966
     22 N          59.5936   87.5002    7.9050 N.ar    1  UNL1       -0.2273
     23 C          60.3337   88.4120    8.8383 C.ar    1  UNL1        0.1402
     24 N          60.0707   89.8195    9.2849 N.ar    1  UNL1       -0.3377
     25 C          61.0068   90.4882   10.2475 C.ar    1  UNL1        0.0691
     26 C          62.2058   89.7493   10.7634 C.ar    1  UNL1       -0.0047
     27 C          63.1419   90.4181   11.7261 C.3     1  UNL1        0.0326
     28 C          62.4689   88.3417   10.3168 C.ar    1  UNL1       -0.0001
     29 C          61.5328   87.6731    9.3542 C.ar    1  UNL1        0.0315
     30 H          59.2837   90.3045    8.9463 H       1  UNL1        0.1674
@<TRIPOS>BOND
     1    17    18    1
     2    18    11    1
     3    11    12   ar
     4    12    13   ar
     5    13    14   ar
     6    14    10    1
     7    10     8    1
     8     8     1    1
     9     1     2   ar
    10     2     3   ar
    11     3     4   ar
    12     4    19    1
    13    19    20    1
    14    20    21   ar
    15    21    22   ar
    16    22    23   ar
    17    23    24   ar
    18    24    25   ar
    19    25    26   ar
    20    26    27    1
    21    26    28   ar
    22    28    29   ar
    23     4     5   ar
    24     5     6    1
    25     5     7   ar
    26    14    15   ar
    27    15    16   ar
    28    16    11   ar
    29     7     1   ar
    30    29    20   ar
    31    29    23    1
    32     8     9    1
    33    24    30    1
@<TRIPOS>MOLECULE
*****
 30 33 0 0 0
SMALL
GASTEIGER

@<TRIPOS>ATOM
      1 C          64.2290   85.2887   15.5665 C.ar    1  UNL1        0.1311
      2 C          64.7180   86.2056   14.4848 C.ar    1  UNL1        0.0339
      3 C          64.4596   87.6802   14.5781 C.ar    1  UNL1        0.0027
      4 C          63.7123   88.2379   15.7530 C.ar    1  UNL1        0.0283
      5 C          63.2233   87.3210   16.8347 C.ar    1  UNL1        0.2196
      6 F          62.4760   87.8787   18.0097 F       1  UNL1       -0.1835
      7 N          63.4817   85.8464   16.7414 N.ar    1  UNL1       -0.2035
      8 N          64.4874   83.8141   15.4733 N.pl3   1  UNL1       -0.3144
      9 H          65.1976   83.4034   16.0175 H       1  UNL1        0.1485
     10 C          63.6636   82.9650   14.5509 C.3     1  UNL1        0.1169
     11 C          63.5557   83.8798   10.1463 C.ar    1  UNL1        0.2250
     12 C          62.6125   84.5779   11.0806 C.ar    1  UNL1        0.0574
     13 C          62.6485   84.2730   12.5488 C.ar    1  UNL1        0.0037
     14 C          63.6277   83.2699   13.0827 C.ar    1  UNL1        0.0168
     15 C          64.5709   82.5717   12.1484 C.ar    1  UNL1        0.0994
     16 N          64.5349   82.8767   10.6802 N.ar    1  UNL1       -0.2104
     17 C          62.8041   85.4065    8.1830 C.3     1  UNL1        0.2542
     18 O          63.5198   84.1846    8.6780 O.3     1  UNL1       -0.4561
     19 C          63.4539   89.7126   15.8462 C.3     1  UNL1        0.0582
     20 C          64.1643   90.6583   14.9237 C.ar    1  UNL1        0.0044
     21 C          65.2543   91.6140   15.3092 C.ar    1  UNL1        0.0966
     22 N          65.6731   92.3606   14.0775 N.ar    1  UNL1       -0.2273
     23 C          64.8420   91.8664   12.9308 C.ar    1  UNL1        0.1402
     24 N          64.8138   92.2385   11.4779 N.ar    1  UNL1       -0.3377
     25 C          63.8531   91.5584   10.5481 C.ar    1  UNL1        0.0691
     26 C          62.9206   90.5063   11.0711 C.ar    1  UNL1       -0.0047
     27 C          61.9599   89.8263   10.1413 C.3     1  UNL1        0.0326
     28 C          62.9488   90.1342   12.5240 C.ar    1  UNL1       -0.0001
     29 C          63.9095   90.8143   13.4538 C.ar    1  UNL1        0.0315
     30 H          65.4258   92.9290   11.1347 H       1  UNL1        0.1674
@<TRIPOS>BOND
     1    17    18    1
     2    18    11    1
     3    11    12   ar
     4    12    13   ar
     5    13    14   ar
     6    14    10    1
     7    10     8    1
     8     8     1    1
     9     1     2   ar
    10     2     3   ar
    11     3     4   ar
    12     4    19    1
    13    19    20    1
    14    20    21   ar
    15    21    22   ar
    16    22    23   ar
    17    23    24   ar
    18    24    25   ar
    19    25    26   ar
    20    26    27    1
    21    26    28   ar
    22    28    29   ar
    23     4     5   ar
    24     5     6    1
    25     5     7   ar
    26    14    15   ar
    27    15    16   ar
    28    16    11   ar
    29     7     1   ar
    30    29    20   ar
    31    29    23    1
    32     8     9    1
    33    24    30    1
@<TRIPOS>MOLECULE
*****
 30 33 0 0 0
SMALL
GASTEIGER

@<TRIPOS>ATOM
      1 C          63.8380   90.6912   12.4552 C.ar    1  UNL1        0.1311
      2 C          63.8777   89.3442   13.1139 C.ar    1  UNL1        0.0339
      3 C          63.1096   88.1984   12.5247 C.ar    1  UNL1        0.0027
      4 C          62.3020   88.3996   11.2768 C.ar    1  UNL1        0.0283
      5 C          62.2623   89.7467   10.6181 C.ar    1  UNL1        0.2196
      6 F          61.4547   89.9479    9.3702 F       1  UNL1       -0.1835
      7 N          63.0304   90.8925   11.2074 N.ar    1  UNL1       -0.2035
      8 N          64.6061   91.8371   13.0444 N.pl3   1  UNL1       -0.3144
      9 H          64.1527   92.4821   13.6341 H       1  UNL1        0.1485
     10 C          66.0648   92.0003   12.7352 C.3     1  UNL1        0.1169
     11 C          67.3786   94.8830    9.5394 C.ar    1  UNL1        0.2250
     12 C          67.6742   93.4193    9.3967 C.ar    1  UNL1        0.0574
     13 C          67.2362   92.4585   10.4620 C.ar    1  UNL1        0.0037
     14 C          66.5027   92.9612   11.6700 C.ar    1  UNL1        0.0168
     15 C          66.2071   94.4249   11.8126 C.ar    1  UNL1        0.0994
     16 N          66.6450   95.3857   10.7473 N.ar    1  UNL1       -0.2104
     17 C          66.8499   96.8555    7.9332 C.3     1  UNL1        0.2542
     18 O          67.8165   95.8439    8.4741 O.3     1  UNL1       -0.4561
     19 C          61.5339   87.2537   10.6875 C.3     1  UNL1        0.0582
     20 C          62.2655   86.0779   10.1112 C.ar    1  UNL1        0.0044
     21 C          62.6108   85.8768    8.6654 C.ar    1  UNL1        0.0966
     22 N          63.3390   84.5714    8.5401 N.ar    1  UNL1       -0.2273
     23 C          63.4436   83.9657    9.9084 C.ar    1  UNL1        0.1402
     24 N          64.0574   82.6867   10.3957 N.ar    1  UNL1       -0.3377
     25 C          64.0076   82.3389   11.8539 C.ar    1  UNL1        0.0691
     26 C          63.3441   83.2700   12.8249 C.ar    1  UNL1       -0.0047
     27 C          63.2944   82.9221   14.2832 C.3     1  UNL1        0.0326
     28 C          62.7304   84.5490   12.3376 C.ar    1  UNL1       -0.0001
     29 C          62.7802   84.8969   10.8794 C.ar    1  UNL1        0.0315
     30 H          64.4928   82.0756    9.7584 H       1  UNL1        0.1674
@<TRIPOS>BOND
     1    17    18    1
     2    18    11    1
     3    11    12   ar
     4    12    13   ar
     5    13    14   ar
     6    14    10    1
     7    10     8    1
     8     8     1    1
     9     1     2   ar
    10     2     3   ar
    11     3     4   ar
    12     4    19    1
    13    19    20    1
    14    20    21   ar
    15    21    22   ar
    16    22    23   ar
    17    23    24   ar
    18    24    25   ar
    19    25    26   ar
    20    26    27    1
    21    26    28   ar
    22    28    29   ar
    23     4     5   ar
    24     5     6    1
    25     5     7   ar
    26    14    15   ar
    27    15    16   ar
    28    16    11   ar
    29     7     1   ar
    30    29    20   ar
    31    29    23    1
    32     8     9    1
    33    24    30    1
@<TRIPOS>MOLECULE
*****
 30 33 0 0 0
SMALL
GASTEIGER

@<TRIPOS>ATOM
      1 C          60.7612   87.1310    9.2509 C.ar    1  UNL1        0.1311
      2 C          61.0008   86.5914   10.6299 C.ar    1  UNL1        0.0339
      3 C          61.9765   85.4712   10.8378 C.ar    1  UNL1        0.0027
      4 C          62.7125   84.8906    9.6668 C.ar    1  UNL1        0.0283
      5 C          62.4728   85.4302    8.2879 C.ar    1  UNL1        0.2196
      6 F          63.2089   84.8495    7.1169 F       1  UNL1       -0.1835
      7 N          61.4972   86.5503    8.0800 N.ar    1  UNL1       -0.2035
      8 N          59.7856   88.2512    9.0429 N.pl3   1  UNL1       -0.3144
      9 H          58.8721   88.0568    8.7313 H       1  UNL1        0.1485
     10 C          60.2016   89.6674    9.3098 C.3     1  UNL1        0.1169
     11 C          63.2552   90.5537   12.4940 C.ar    1  UNL1        0.2250
     12 C          63.5658   90.8438   11.0555 C.ar    1  UNL1        0.0574
     13 C          62.5479   90.5483    9.9941 C.ar    1  UNL1        0.0037
     14 C          61.2194   89.9628   10.3712 C.ar    1  UNL1        0.0168
     15 C          60.9088   89.6727   11.8098 C.ar    1  UNL1        0.0994
     16 N          61.9267   89.9682   12.8711 N.ar    1  UNL1       -0.2104
     17 C          64.6389   89.7949   14.5579 C.3     1  UNL1        0.2542
     18 O          64.2730   90.8491   13.5554 O.3     1  UNL1       -0.4561
     19 C          63.6882   83.7703    9.8748 C.3     1  UNL1        0.0582
     20 C          63.5527   82.8692   11.0663 C.ar    1  UNL1        0.0044
     21 C          63.1921   81.4136   11.0344 C.ar    1  UNL1        0.0966
     22 N          63.1706   80.9103   12.4473 N.ar    1  UNL1       -0.2273
     23 C          63.5177   82.0550   13.3524 C.ar    1  UNL1        0.1402
     24 N          63.6493   82.1513   14.8435 N.ar    1  UNL1       -0.3377
     25 C          64.0171   83.4582   15.4810 C.ar    1  UNL1        0.0691
     26 C          64.2532   84.6689   14.6275 C.ar    1  UNL1       -0.0047
     27 C          64.6210   85.9760   15.2652 C.3     1  UNL1        0.0326
     28 C          64.1216   84.5726   13.1365 C.ar    1  UNL1       -0.0001
     29 C          63.7539   83.2657   12.4989 C.ar    1  UNL1        0.0315
     30 H          63.4943   81.3567   15.4037 H       1  UNL1        0.1674
@<TRIPOS>BOND
     1    17    18    1
     2    18    11    1
     3    11    12   ar
     4    12    13   ar
     5    13    14   ar
     6    14    10    1
     7    10     8    1
     8     8     1    1
     9     1     2   ar
    10     2     3   ar
    11     3     4   ar
    12     4    19    1
    13    19    20    1
    14    20    21   ar
    15    21    22   ar
    16    22    23   ar
    17    23    24   ar
    18    24    25   ar
    19    25    26   ar
    20    26    27    1
    21    26    28   ar
    22    28    29   ar
    23     4     5   ar
    24     5     6    1
    25     5     7   ar
    26    14    15   ar
    27    15    16   ar
    28    16    11   ar
    29     7     1   ar
    30    29    20   ar
    31    29    23    1
    32     8     9    1
    33    24    30    1
@<TRIPOS>MOLECULE
*****
 30 33 0 0 0
SMALL
GASTEIGER

@<TRIPOS>ATOM
      1 C          62.0499   89.7582   11.9404 C.ar    1  UNL1        0.1311
      2 C          62.6688   90.6177   10.8783 C.ar    1  UNL1        0.0339
      3 C          63.8970   91.4220   11.1858 C.ar    1  UNL1        0.0027
      4 C          64.5062   91.3669   12.5553 C.ar    1  UNL1        0.0283
      5 C          63.8873   90.5074   13.6175 C.ar    1  UNL1        0.2196
      6 F          64.4965   90.4523   14.9871 F       1  UNL1       -0.1835
      7 N          62.6591   89.7031   13.3100 N.ar    1  UNL1       -0.2035
      8 N          60.8217   88.9538   11.6330 N.pl3   1  UNL1       -0.3144
      9 H          60.0578   88.9650   12.2540 H       1  UNL1        0.1485
     10 C          60.7573   88.1325   10.3795 C.3     1  UNL1        0.1169
     11 C          63.2399   84.3980   10.0066 C.ar    1  UNL1        0.2250
     12 C          62.6960   84.8066   11.3434 C.ar    1  UNL1        0.0574
     13 C          61.8685   86.0515   11.4677 C.ar    1  UNL1        0.0037
     14 C          61.5848   86.8877   10.2551 C.ar    1  UNL1        0.0168
     15 C          62.1287   86.4790    8.9183 C.ar    1  UNL1        0.0994
     16 N          62.9562   85.2342    8.7940 N.ar    1  UNL1       -0.2104
     17 C          63.7107   81.9327   10.6781 C.3     1  UNL1        0.2542
     18 O          64.0675   83.1531    9.8822 O.3     1  UNL1       -0.4561
     19 C          65.7345   92.1713   12.8628 C.3     1  UNL1        0.0582
     20 C          66.6981   92.5176   11.7666 C.ar    1  UNL1        0.0044
     21 C          67.9571   91.7741   11.4320 C.ar    1  UNL1        0.0966
     22 N          68.6088   92.4653   10.2711 N.ar    1  UNL1       -0.2273
     23 C          67.7526   93.6359    9.8883 C.ar    1  UNL1        0.1402
     24 N          67.8957   94.6766    8.8176 N.ar    1  UNL1       -0.3377
     25 C          66.8579   95.7496    8.6712 C.ar    1  UNL1        0.0691
     26 C          65.6769   95.7819    9.5954 C.ar    1  UNL1       -0.0047
     27 C          64.6390   96.8550    9.4489 C.3     1  UNL1        0.0326
     28 C          65.5338   94.7413   10.6662 C.ar    1  UNL1       -0.0001
     29 C          66.5717   93.6683   10.8126 C.ar    1  UNL1        0.0315
     30 H          68.6708   94.6553    8.2110 H       1  UNL1        0.1674
@<TRIPOS>BOND
     1    17    18    1
     2    18    11    1
     3    11    12   ar
     4    12    13   ar
     5    13    14   ar
     6    14    10    1
     7    10     8    1
     8     8     1    1
     9     1     2   ar
    10     2     3   ar
    11     3     4   ar
    12     4    19    1
    13    19    20    1
    14    20    21   ar
    15    21    22   ar
    16    22    23   ar
    17    23    24   ar
    18    24    25   ar
    19    25    26   ar
    20    26    27    1
    21    26    28   ar
    22    28    29   ar
    23     4     5   ar
    24     5     6    1
    25     5     7   ar
    26    14    15   ar
    27    15    16   ar
    28    16    11   ar
    29     7     1   ar
    30    29    20   ar
    31    29    23    1
    32     8     9    1
    33    24    30    1
@<TRIPOS>MOLECULE
*****
 30 33 0 0 0
SMALL
GASTEIGER

@<TRIPOS>ATOM
      1 C          62.0255   88.9850   10.9088 C.ar    1  UNL1        0.1311
      2 C          62.1985   89.9955    9.8138 C.ar    1  UNL1        0.0339
      3 C          63.0931   91.1813   10.0220 C.ar    1  UNL1        0.0027
      4 C          63.8148   91.3567   11.3252 C.ar    1  UNL1        0.0283
      5 C          63.6419   90.3463   12.4203 C.ar    1  UNL1        0.2196
      6 F          64.3635   90.5217   13.7235 F       1  UNL1       -0.1835
      7 N          62.7472   89.1605   12.2120 N.ar    1  UNL1       -0.2035
      8 N          61.1309   87.7992   10.7007 N.pl3   1  UNL1       -0.3144
      9 H          60.2468   87.7678   11.1326 H       1  UNL1        0.1485
     10 C          61.5833   86.6611    9.8345 C.3     1  UNL1        0.1169
     11 C          63.7624   83.1725   11.6595 C.ar    1  UNL1        0.2250
     12 C          63.8774   83.4422   10.1885 C.ar    1  UNL1        0.0574
     13 C          63.1510   84.6051    9.5802 C.ar    1  UNL1        0.0037
     14 C          62.3096   85.4982   10.4429 C.ar    1  UNL1        0.0168
     15 C          62.1946   85.2286   11.9140 C.ar    1  UNL1        0.0994
     16 N          62.9210   84.0657   12.5223 N.ar    1  UNL1       -0.2104
     17 C          63.8776   81.2605   13.4149 C.3     1  UNL1        0.2542
     18 O          64.4887   82.0096   12.2679 O.3     1  UNL1       -0.4561
     19 C          64.7095   92.5426   11.5334 C.3     1  UNL1        0.0582
     20 C          66.1992   92.3669   11.5366 C.ar    1  UNL1        0.0044
     21 C          67.0721   92.2193   10.3257 C.ar    1  UNL1        0.0966
     22 N          68.4898   92.0691   10.7919 N.ar    1  UNL1       -0.2273
     23 C          68.4931   92.1239   12.2909 C.ar    1  UNL1        0.1402
     24 N          69.6024   92.0301   13.2963 N.ar    1  UNL1       -0.3377
     25 C          69.2959   92.1203   14.7618 C.ar    1  UNL1        0.0691
     26 C          67.8801   92.3043   15.2220 C.ar    1  UNL1       -0.0047
     27 C          67.5736   92.3945   16.6877 C.3     1  UNL1        0.0326
     28 C          66.7709   92.3982   14.2167 C.ar    1  UNL1       -0.0001
     29 C          67.0774   92.3080   12.7511 C.ar    1  UNL1        0.0315
     30 H          70.5316   91.9093   12.9942 H       1  UNL1        0.1674
@<TRIPOS>BOND
     1    17    18    1
     2    18    11    1
     3    11    12   ar
     4    12    13   ar
     5    13    14   ar
     6    14    10    1
     7    10     8    1
     8     8     1    1
     9     1     2   ar
    10     2     3   ar
    11     3     4   ar
    12     4    19    1
    13    19    20    1
    14    20    21   ar
    15    21    22   ar
    16    22    23   ar
    17    23    24   ar
    18    24    25   ar
    19    25    26   ar
    20    26    27    1
    21    26    28   ar
    22    28    29   ar
    23     4     5   ar
    24     5     6    1
    25     5     7   ar
    26    14    15   ar
    27    15    16   ar
    28    16    11   ar
    29     7     1   ar
    30    29    20   ar
    31    29    23    1
    32     8     9    1
    33    24    30    1
@<TRIPOS>MOLECULE
*****
 30 33 0 0 0
SMALL
GASTEIGER

@<TRIPOS>ATOM
      1 C          62.6941   89.8499   13.1548 C.ar    1  UNL1        0.1311
      2 C          63.5578   88.6300   13.0298 C.ar    1  UNL1        0.0339
      3 C          63.1607   87.5220   12.1000 C.ar    1  UNL1        0.0027
      4 C          61.8999   87.6339   11.2951 C.ar    1  UNL1        0.0283
      5 C          61.0362   88.8539   11.4201 C.ar    1  UNL1        0.2196
      6 F          59.7754   88.9658   10.6152 F       1  UNL1       -0.1835
      7 N          61.4333   89.9619   12.3499 N.ar    1  UNL1       -0.2035
      8 N          63.0911   90.9580   14.0846 N.pl3   1  UNL1       -0.3144
      9 H          62.3996   91.5101   14.5160 H       1  UNL1        0.1485
     10 C          64.5419   91.2250   14.3570 C.3     1  UNL1        0.1169
     11 C          67.1979   92.7822   11.0753 C.ar    1  UNL1        0.2250
     12 C          65.7200   92.6603   10.8497 C.ar    1  UNL1        0.0574
     13 C          64.8347   92.1412   11.9436 C.ar    1  UNL1        0.0037
     14 C          65.4273   91.7440   13.2631 C.ar    1  UNL1        0.0168
     15 C          66.9052   91.8659   13.4887 C.ar    1  UNL1        0.0994
     16 N          67.7905   92.3850   12.3948 N.ar    1  UNL1       -0.2104
     17 C          68.6576   92.3552    8.9688 C.3     1  UNL1        0.2542
     18 O          68.0833   93.3013    9.9814 O.3     1  UNL1       -0.4561
     19 C          61.5028   86.5258   10.3653 C.3     1  UNL1        0.0582
     20 C          62.4135   85.3505   10.1671 C.ar    1  UNL1        0.0044
     21 C          63.0884   84.9645    8.8843 C.ar    1  UNL1        0.0966
     22 N          63.9012   83.7303    9.1414 N.ar    1  UNL1       -0.2273
     23 C          63.7285   83.3534   10.5830 C.ar    1  UNL1        0.1402
     24 N          64.2897   82.2278   11.4003 N.ar    1  UNL1       -0.3377
     25 C          63.9315   82.1036   12.8516 C.ar    1  UNL1        0.0691
     26 C          63.0120   83.1050   13.4855 C.ar    1  UNL1       -0.0047
     27 C          62.6538   82.9808   14.9369 C.3     1  UNL1        0.0326
     28 C          62.4508   84.2306   12.6682 C.ar    1  UNL1       -0.0001
     29 C          62.8091   84.3548   11.2169 C.ar    1  UNL1        0.0315
     30 H          64.8932   81.5706   10.9843 H       1  UNL1        0.1674
@<TRIPOS>BOND
     1    17    18    1
     2    18    11    1
     3    11    12   ar
     4    12    13   ar
     5    13    14   ar
     6    14    10    1
     7    10     8    1
     8     8     1    1
     9     1     2   ar
    10     2     3   ar
    11     3     4   ar
    12     4    19    1
    13    19    20    1
    14    20    21   ar
    15    21    22   ar
    16    22    23   ar
    17    23    24   ar
    18    24    25   ar
    19    25    26   ar
    20    26    27    1
    21    26    28   ar
    22    28    29   ar
    23     4     5   ar
    24     5     6    1
    25     5     7   ar
    26    14    15   ar
    27    15    16   ar
    28    16    11   ar
    29     7     1   ar
    30    29    20   ar
    31    29    23    1
    32     8     9    1
    33    24    30    1
@<TRIPOS>MOLECULE
*****
 30 33 0 0 0
SMALL
GASTEIGER

@<TRIPOS>ATOM
      1 C          61.8884   89.3039   11.5625 C.ar    1  UNL1        0.1311
      2 C          62.1584   89.9625   10.2422 C.ar    1  UNL1        0.0339
      3 C          63.1348   91.0978   10.1562 C.ar    1  UNL1        0.0027
      4 C          63.8413   91.5746   11.3905 C.ar    1  UNL1        0.0283
      5 C          63.5713   90.9160   12.7109 C.ar    1  UNL1        0.2196
      6 F          64.2777   91.3928   13.9452 F       1  UNL1       -0.1835
      7 N          62.5948   89.7807   12.7969 N.ar    1  UNL1       -0.2035
      8 N          60.9119   88.1685   11.6486 N.pl3   1  UNL1       -0.3144
      9 H          60.8084   87.6711   12.4919 H       1  UNL1        0.1485
     10 C          60.0932   87.7907   10.4498 C.3     1  UNL1        0.1169
     11 C          61.8660   85.1706    7.2495 C.ar    1  UNL1        0.2250
     12 C          62.6935   85.5707    8.4349 C.ar    1  UNL1        0.0574
     13 C          62.1025   86.4441    9.5016 C.ar    1  UNL1        0.0037
     14 C          60.6841   86.9174    9.3830 C.ar    1  UNL1        0.0168
     15 C          59.8566   86.5173    8.1976 C.ar    1  UNL1        0.0994
     16 N          60.4476   85.6439    7.1308 N.ar    1  UNL1       -0.2104
     17 C          61.6876   84.0265    4.9237 C.3     1  UNL1        0.2542
     18 O          62.4568   84.2972    6.1827 O.3     1  UNL1       -0.4561
     19 C          64.8178   92.7101   11.3045 C.3     1  UNL1        0.0582
     20 C          66.2916   92.4383   11.3684 C.ar    1  UNL1        0.0044
     21 C          67.1953   92.1974   10.1957 C.ar    1  UNL1        0.0966
     22 N          68.5826   91.9699   10.7188 N.ar    1  UNL1       -0.2273
     23 C          68.5363   92.0702   12.2147 C.ar    1  UNL1        0.1402
     24 N          69.6005   91.9353   13.2631 N.ar    1  UNL1       -0.3377
     25 C          69.2487   92.0899   14.7130 C.ar    1  UNL1        0.0691
     26 C          67.8327   92.3794   15.1145 C.ar    1  UNL1       -0.0047
     27 C          67.4810   92.5339   16.5645 C.3     1  UNL1        0.0326
     28 C          66.7685   92.5143   14.0661 C.ar    1  UNL1       -0.0001
     29 C          67.1203   92.3597   12.6162 C.ar    1  UNL1        0.0315
     30 H          70.5298   91.7453   12.9996 H       1  UNL1        0.1674
@<TRIPOS>BOND
     1    17    18    1
     2    18    11    1
     3    11    12   ar
     4    12    13   ar
     5    13    14   ar
     6    14    10    1
     7    10     8    1
     8     8     1    1
     9     1     2   ar
    10     2     3   ar
    11     3     4   ar
    12     4    19    1
    13    19    20    1
    14    20    21   ar
    15    21    22   ar
    16    22    23   ar
    17    23    24   ar
    18    24    25   ar
    19    25    26   ar
    20    26    27    1
    21    26    28   ar
    22    28    29   ar
    23     4     5   ar
    24     5     6    1
    25     5     7   ar
    26    14    15   ar
    27    15    16   ar
    28    16    11   ar
    29     7     1   ar
    30    29    20   ar
    31    29    23    1
    32     8     9    1
    33    24    30    1
@<TRIPOS>MOLECULE
*****
 30 33 0 0 0
SMALL
GASTEIGER

@<TRIPOS>ATOM
      1 C          63.6211   83.7871   11.2607 C.ar    1  UNL1        0.1311
      2 C          62.4972   84.5689   11.8736 C.ar    1  UNL1        0.0339
      3 C          61.6723   85.4887   11.0230 C.ar    1  UNL1        0.0027
      4 C          61.9713   85.6267    9.5596 C.ar    1  UNL1        0.0283
      5 C          63.0953   84.8449    8.9467 C.ar    1  UNL1        0.2196
      6 F          63.3943   84.9830    7.4834 F       1  UNL1       -0.1835
      7 N          63.9201   83.9251    9.7973 N.ar    1  UNL1       -0.2035
      8 N          64.4460   82.8672   12.1112 N.pl3   1  UNL1       -0.3144
      9 H          65.2663   82.4630   11.7466 H       1  UNL1        0.1485
     10 C          64.0211   82.5632   13.5173 C.3     1  UNL1        0.1169
     11 C          63.2179   85.9228   16.4013 C.ar    1  UNL1        0.2250
     12 C          64.4409   85.9556   15.5335 C.ar    1  UNL1        0.0574
     13 C          64.7086   84.8357   14.5722 C.ar    1  UNL1        0.0037
     14 C          63.7533   83.6830   14.4787 C.ar    1  UNL1        0.0168
     15 C          62.5303   83.6503   15.3464 C.ar    1  UNL1        0.0994
     16 N          62.2625   84.7702   16.3077 N.ar    1  UNL1       -0.2104
     17 C          63.1282   88.4661   16.9243 C.3     1  UNL1        0.2542
     18 O          62.9501   87.0427   17.3626 O.3     1  UNL1       -0.4561
     19 C          61.1464   86.5466    8.7090 C.3     1  UNL1        0.0582
     20 C          60.8742   87.9489    9.1669 C.ar    1  UNL1        0.0044
     21 C          59.8980   88.9047    8.5477 C.ar    1  UNL1        0.0966
     22 N          59.9508   90.1880    9.3225 N.ar    1  UNL1       -0.2273
     23 C          60.9597   90.0253   10.4205 C.ar    1  UNL1        0.1402
     24 N          61.4324   90.9585   11.4955 N.ar    1  UNL1       -0.3377
     25 C          62.4758   90.5078   12.4744 C.ar    1  UNL1        0.0691
     26 C          63.0465   89.1239   12.3782 C.ar    1  UNL1       -0.0047
     27 C          64.0899   88.6732   13.3571 C.3     1  UNL1        0.0326
     28 C          62.5737   88.1907   11.3032 C.ar    1  UNL1       -0.0001
     29 C          61.5303   88.6414   10.3244 C.ar    1  UNL1        0.0315
     30 H          61.0579   91.8668   11.5586 H       1  UNL1        0.1674
@<TRIPOS>BOND
     1    17    18    1
     2    18    11    1
     3    11    12   ar
     4    12    13   ar
     5    13    14   ar
     6    14    10    1
     7    10     8    1
     8     8     1    1
     9     1     2   ar
    10     2     3   ar
    11     3     4   ar
    12     4    19    1
    13    19    20    1
    14    20    21   ar
    15    21    22   ar
    16    22    23   ar
    17    23    24   ar
    18    24    25   ar
    19    25    26   ar
    20    26    27    1
    21    26    28   ar
    22    28    29   ar
    23     4     5   ar
    24     5     6    1
    25     5     7   ar
    26    14    15   ar
    27    15    16   ar
    28    16    11   ar
    29     7     1   ar
    30    29    20   ar
    31    29    23    1
    32     8     9    1
    33    24    30    1
