@<TRIPOS>MOLECULE
*****
 33 37 0 0 0
SMALL
GASTEIGER

@<TRIPOS>ATOM
      1 N          62.1530   88.2828    9.6164 N.am    1  UNL1       -0.3005
      2 C          62.0037   89.1509   10.8305 C.2     1  UNL1        0.2476
      3 O          60.8543   88.9355   11.7698 O.2     1  UNL1       -0.2701
      4 H          62.9075   88.4242    8.9999 H       1  UNL1        0.1499
      5 C          63.0040   90.2345   11.1054 C.ar    1  UNL1        0.0755
      6 C          63.1653   91.3692   10.1378 C.ar    1  UNL1        0.1035
      7 N          64.1656   92.4527   10.4127 N.ar    1  UNL1       -0.2406
      8 C          65.0044   92.4014   11.6551 C.ar    1  UNL1        0.1180
      9 C          64.8431   91.2667   12.6227 C.ar    1  UNL1        0.1036
     10 C          63.8429   90.1832   12.3478 C.ar    1  UNL1        0.0460
     11 C          63.9058   89.1970   13.4764 C.ar    1  UNL1        0.1222
     12 N          64.9449   89.6711   14.4487 N.ar    1  UNL1       -0.1635
     13 N          65.5242   90.9502   13.9211 N.ar    1  UNL1       -0.2281
     14 C          66.5963   91.7691   14.5768 C.ar    1  UNL1        0.0830
     15 C          66.3071   92.4978   15.8555 C.ar    1  UNL1        0.0215
     16 C          67.3792   93.3166   16.5112 C.ar    1  UNL1        0.0312
     17 C          68.7407   93.4068   15.8881 C.ar    1  UNL1        0.1402
     18 F          69.8129   94.2257   16.5438 F       1  UNL1       -0.2042
     19 C          69.0300   92.6781   14.6094 C.ar    1  UNL1        0.0312
     20 C          67.9578   91.8592   13.9537 C.ar    1  UNL1        0.0215
     21 C          61.1529   87.1993    9.3415 C.3     1  UNL1        0.0762
     22 C          59.8782   86.5324    8.9166 C.3     1  UNL1        0.0242
     23 C          60.0153   88.0226    8.8142 C.3     1  UNL1        0.0242
     24 C          62.6900   84.3485   11.6350 C.ar    1  UNL1        0.1860
     25 C          61.8998   85.5481   11.2031 C.ar    1  UNL1        0.0352
     26 C          61.9430   85.9997    9.7733 C.ar    1  UNL1       -0.0019
     27 C          62.7765   85.2517    8.7754 C.ar    1  UNL1        0.0180
     28 C          63.5667   84.0521    9.2074 C.ar    1  UNL1        0.1001
     29 N          63.5234   83.6005   10.6371 N.ar    1  UNL1       -0.2257
     30 C          62.6034   83.4455   14.4946 C.3     1  UNL1        0.1834
     31 S          62.6467   83.8970   13.0648 S.O2    1  UNL1        0.0268
     32 O          62.3711   82.4934   12.6132 O.2     1  UNL1       -0.1671
     33 O          62.9224   85.3006   13.5163 O.2     1  UNL1       -0.1671
@<TRIPOS>BOND
     1    30    31    1
     2    31    32    2
     3    31    33    2
     4    31    24    1
     5    24    25   ar
     6    25    26   ar
     7    26    21    1
     8    21     1    1
     9     1     2   am
    10     2     3    2
    11     2     5    1
    12     5     6   ar
    13     6     7   ar
    14     7     8   ar
    15     8     9   ar
    16     9    10   ar
    17    10    11   ar
    18    11    12   ar
    19    12    13   ar
    20    13    14    1
    21    14    15   ar
    22    15    16   ar
    23    16    17   ar
    24    17    18    1
    25    17    19   ar
    26    19    20   ar
    27    21    22    1
    28    22    23    1
    29    26    27   ar
    30    27    28   ar
    31    28    29   ar
    32    29    24   ar
    33    23    21    1
    34    10     5   ar
    35    20    14   ar
    36    13     9   ar
    37     1     4    1
@<TRIPOS>MOLECULE
*****
 33 37 0 0 0
SMALL
GASTEIGER

@<TRIPOS>ATOM
      1 N          65.5001   91.0678   13.2862 N.am    1  UNL1       -0.3005
      2 C          64.1462   90.5368   13.6536 C.2     1  UNL1        0.2476
      3 O          63.3311   91.2257   14.7076 O.2     1  UNL1       -0.2701
      4 H          66.0351   90.6156   12.5945 H       1  UNL1        0.1499
      5 C          63.6074   89.3168   12.9669 C.ar    1  UNL1        0.0755
      6 C          62.8290   89.4559   11.6923 C.ar    1  UNL1        0.1035
      7 N          62.2902   88.2360   11.0056 N.ar    1  UNL1       -0.2406
      8 C          62.5300   86.8770   11.5936 C.ar    1  UNL1        0.1180
      9 C          63.3084   86.7379   12.8682 C.ar    1  UNL1        0.1036
     10 C          63.8472   87.9579   13.5548 C.ar    1  UNL1        0.0460
     11 C          64.5728   87.5123   14.7898 C.ar    1  UNL1        0.1222
     12 N          64.4824   86.0170   14.8663 N.ar    1  UNL1       -0.1635
     13 N          63.7010   85.5384   13.6787 N.ar    1  UNL1       -0.2281
     14 C          63.3703   84.1109   13.3579 C.ar    1  UNL1        0.0830
     15 C          62.4974   83.3170   14.2840 C.ar    1  UNL1        0.0215
     16 C          62.1667   81.8895   13.9632 C.ar    1  UNL1        0.0312
     17 C          62.7089   81.2559   12.7163 C.ar    1  UNL1        0.1402
     18 F          62.3781   79.8284   12.3956 F       1  UNL1       -0.2042
     19 C          63.5818   82.0499   11.7903 C.ar    1  UNL1        0.0312
     20 C          63.9125   83.4774   12.1111 C.ar    1  UNL1        0.0215
     21 C          66.0389   92.2877   13.9729 C.3     1  UNL1        0.0762
     22 C          66.4515   93.2187   15.0743 C.3     1  UNL1        0.0242
     23 C          65.8627   91.8794   15.4055 C.3     1  UNL1        0.0242
     24 C          67.5019   93.3312   10.4343 C.ar    1  UNL1        0.1860
     25 C          67.1384   92.4992   11.6285 C.ar    1  UNL1        0.0352
     26 C          66.4023   93.1196   12.7789 C.ar    1  UNL1       -0.0019
     27 C          66.0296   94.5719   12.7351 C.ar    1  UNL1        0.0180
     28 C          66.3930   95.4038   11.5410 C.ar    1  UNL1        0.1001
     29 N          67.1291   94.7834   10.3906 N.ar    1  UNL1       -0.2257
     30 C          68.9741   92.0903    8.1338 C.3     1  UNL1        0.1834
     31 S          68.2380   92.7108    9.2841 S.O2    1  UNL1        0.0268
     32 O          67.8759   93.8825    8.4204 O.2     1  UNL1       -0.1671
     33 O          68.6000   91.5391   10.1478 O.2     1  UNL1       -0.1671
@<TRIPOS>BOND
     1    30    31    1
     2    31    32    2
     3    31    33    2
     4    31    24    1
     5    24    25   ar
     6    25    26   ar
     7    26    21    1
     8    21     1    1
     9     1     2   am
    10     2     3    2
    11     2     5    1
    12     5     6   ar
    13     6     7   ar
    14     7     8   ar
    15     8     9   ar
    16     9    10   ar
    17    10    11   ar
    18    11    12   ar
    19    12    13   ar
    20    13    14    1
    21    14    15   ar
    22    15    16   ar
    23    16    17   ar
    24    17    18    1
    25    17    19   ar
    26    19    20   ar
    27    21    22    1
    28    22    23    1
    29    26    27   ar
    30    27    28   ar
    31    28    29   ar
    32    29    24   ar
    33    23    21    1
    34    10     5   ar
    35    20    14   ar
    36    13     9   ar
    37     1     4    1
@<TRIPOS>MOLECULE
*****
 33 37 0 0 0
SMALL
GASTEIGER

@<TRIPOS>ATOM
      1 N          65.5459   90.6322   13.3785 N.am    1  UNL1       -0.3005
      2 C          64.0698   90.4648   13.1708 C.2     1  UNL1        0.2476
      3 O          63.1364   91.5993   13.4733 O.2     1  UNL1       -0.2701
      4 H          66.1585   89.8876   13.1799 H       1  UNL1        0.1499
      5 C          63.5272   89.1627   12.6605 C.ar    1  UNL1        0.0755
      6 C          62.7097   89.1321   11.4032 C.ar    1  UNL1        0.1035
      7 N          62.1672   87.8301   10.8930 N.ar    1  UNL1       -0.2406
      8 C          62.4420   86.5588   11.6401 C.ar    1  UNL1        0.1180
      9 C          63.2594   86.5894   12.8974 C.ar    1  UNL1        0.1036
     10 C          63.8020   87.8914   13.4076 C.ar    1  UNL1        0.0460
     11 C          64.5695   87.6125   14.6659 C.ar    1  UNL1        0.1222
     12 N          64.5012   86.1381   14.9333 N.ar    1  UNL1       -0.1635
     13 N          63.6915   85.5058   13.8403 N.ar    1  UNL1       -0.2281
     14 C          63.3703   84.0462   13.7126 C.ar    1  UNL1        0.0830
     15 C          62.3095   83.4331   14.5780 C.ar    1  UNL1        0.0215
     16 C          61.9884   81.9735   14.4503 C.ar    1  UNL1        0.0312
     17 C          62.7280   81.1269   13.4572 C.ar    1  UNL1        0.1402
     18 F          62.4068   79.6672   13.3295 F       1  UNL1       -0.2042
     19 C          63.7887   81.7399   12.5919 C.ar    1  UNL1        0.0312
     20 C          64.1099   83.1996   12.7195 C.ar    1  UNL1        0.0215
     21 C          66.0885   91.9342   13.8888 C.3     1  UNL1        0.0762
     22 C          66.4261   93.0453   14.8382 C.3     1  UNL1        0.0242
     23 C          65.6864   91.8368   15.3306 C.3     1  UNL1        0.0242
     24 C          66.7363   94.3075   10.7746 C.ar    1  UNL1        0.1860
     25 C          66.1457   93.7578   12.0392 C.ar    1  UNL1        0.0352
     26 C          66.6791   92.4837   12.6242 C.ar    1  UNL1       -0.0019
     27 C          67.8031   91.7593   11.9446 C.ar    1  UNL1        0.0180
     28 C          68.3936   92.3089   10.6801 C.ar    1  UNL1        0.1001
     29 N          67.8602   93.5830   10.0950 N.ar    1  UNL1       -0.2257
     30 C          65.6694   96.8556    9.6046 C.3     1  UNL1        0.1834
     31 S          66.2028   95.5815   10.1896 S.O2    1  UNL1        0.0268
     32 O          65.8355   96.0585   11.5635 O.2     1  UNL1       -0.1671
     33 O          66.5702   95.1045    8.8158 O.2     1  UNL1       -0.1671
@<TRIPOS>BOND
     1    30    31    1
     2    31    32    2
     3    31    33    2
     4    31    24    1
     5    24    25   ar
     6    25    26   ar
     7    26    21    1
     8    21     1    1
     9     1     2   am
    10     2     3    2
    11     2     5    1
    12     5     6   ar
    13     6     7   ar
    14     7     8   ar
    15     8     9   ar
    16     9    10   ar
    17    10    11   ar
    18    11    12   ar
    19    12    13   ar
    20    13    14    1
    21    14    15   ar
    22    15    16   ar
    23    16    17   ar
    24    17    18    1
    25    17    19   ar
    26    19    20   ar
    27    21    22    1
    28    22    23    1
    29    26    27   ar
    30    27    28   ar
    31    28    29   ar
    32    29    24   ar
    33    23    21    1
    34    10     5   ar
    35    20    14   ar
    36    13     9   ar
    37     1     4    1
@<TRIPOS>MOLECULE
*****
 33 37 0 0 0
SMALL
GASTEIGER

@<TRIPOS>ATOM
      1 N          63.8291   87.7856   14.1849 N.am    1  UNL1       -0.3005
      2 C          63.2119   89.1494   14.0893 C.2     1  UNL1        0.2476
      3 O          62.3964   89.6851   15.2286 O.2     1  UNL1       -0.2701
      4 H          64.3643   87.4341   13.4371 H       1  UNL1        0.1499
      5 C          63.4102   89.9776   12.8544 C.ar    1  UNL1        0.0755
      6 C          62.5339   89.7599   11.6567 C.ar    1  UNL1        0.1035
      7 N          62.7323   90.5880   10.4219 N.ar    1  UNL1       -0.2406
      8 C          63.8069   91.6338   10.3848 C.ar    1  UNL1        0.1180
      9 C          64.6833   91.8515   11.5825 C.ar    1  UNL1        0.1036
     10 C          64.4849   91.0234   12.8173 C.ar    1  UNL1        0.0460
     11 C          65.4949   91.4612   13.8363 C.ar    1  UNL1        0.1222
     12 N          66.3175   92.5599   13.2312 N.ar    1  UNL1       -0.1635
     13 N          65.8158   92.8011   11.8383 N.ar    1  UNL1       -0.2281
     14 C          66.3525   93.8141   10.8709 C.ar    1  UNL1        0.0830
     15 C          67.1750   93.3691    9.6982 C.ar    1  UNL1        0.0215
     16 C          67.7117   94.3821    8.7308 C.ar    1  UNL1        0.0312
     17 C          67.4259   95.8402    8.9362 C.ar    1  UNL1        0.1402
     18 F          67.9626   96.8532    7.9688 F       1  UNL1       -0.2042
     19 C          66.6034   96.2853   10.1089 C.ar    1  UNL1        0.0312
     20 C          66.0667   95.2723   11.0763 C.ar    1  UNL1        0.0215
     21 C          63.6308   86.9575   15.4197 C.3     1  UNL1        0.0762
     22 C          63.4049   86.6070   16.8606 C.3     1  UNL1        0.0242
     23 C          63.4824   88.0454   16.4418 C.3     1  UNL1        0.0242
     24 C          63.7784   84.0305   12.7437 C.ar    1  UNL1        0.1860
     25 C          63.6988   85.4059   13.3370 C.ar    1  UNL1        0.0352
     26 C          63.7104   85.5821   14.8265 C.ar    1  UNL1       -0.0019
     27 C          63.8015   84.3828   15.7229 C.ar    1  UNL1        0.0180
     28 C          63.8811   83.0075   15.1297 C.ar    1  UNL1        0.1001
     29 N          63.8695   82.8313   13.6401 N.ar    1  UNL1       -0.2257
     30 C          63.7552   83.6782    9.7646 C.3     1  UNL1        0.1834
     31 S          63.7668   83.8544   11.2541 S.O2    1  UNL1        0.0268
     32 O          62.7211   84.9233   11.1359 O.2     1  UNL1       -0.1671
     33 O          64.8125   82.7855   11.3725 O.2     1  UNL1       -0.1671
@<TRIPOS>BOND
     1    30    31    1
     2    31    32    2
     3    31    33    2
     4    31    24    1
     5    24    25   ar
     6    25    26   ar
     7    26    21    1
     8    21     1    1
     9     1     2   am
    10     2     3    2
    11     2     5    1
    12     5     6   ar
    13     6     7   ar
    14     7     8   ar
    15     8     9   ar
    16     9    10   ar
    17    10    11   ar
    18    11    12   ar
    19    12    13   ar
    20    13    14    1
    21    14    15   ar
    22    15    16   ar
    23    16    17   ar
    24    17    18    1
    25    17    19   ar
    26    19    20   ar
    27    21    22    1
    28    22    23    1
    29    26    27   ar
    30    27    28   ar
    31    28    29   ar
    32    29    24   ar
    33    23    21    1
    34    10     5   ar
    35    20    14   ar
    36    13     9   ar
    37     1     4    1
@<TRIPOS>MOLECULE
*****
 33 37 0 0 0
SMALL
GASTEIGER

@<TRIPOS>ATOM
      1 N          66.0822   91.2330   13.9418 N.am    1  UNL1       -0.3005
      2 C          64.6849   90.7924   14.2636 C.2     1  UNL1        0.2476
      3 O          63.8240   91.6274   15.1644 O.2     1  UNL1       -0.2701
      4 H          66.6472   90.6850   13.3505 H       1  UNL1        0.1499
      5 C          64.1486   89.5168   13.6846 C.ar    1  UNL1        0.0755
      6 C          64.2728   88.2342   14.4523 C.ar    1  UNL1        0.1035
      7 N          63.7365   86.9586   13.8732 N.ar    1  UNL1       -0.2406
      8 C          63.0761   86.9657   12.5265 C.ar    1  UNL1        0.1180
      9 C          62.9519   88.2483   11.7588 C.ar    1  UNL1        0.1036
     10 C          63.4882   89.5239   12.3378 C.ar    1  UNL1        0.0460
     11 C          63.2231   90.6263   11.3557 C.ar    1  UNL1        0.1222
     12 N          62.5230   90.0320   10.1697 N.ar    1  UNL1       -0.1635
     13 N          62.3554   88.5624   10.4188 N.ar    1  UNL1       -0.2281
     14 C          61.7054   87.5793    9.4908 C.ar    1  UNL1        0.0830
     15 C          60.2570   87.7314    9.1319 C.ar    1  UNL1        0.0215
     16 C          59.6070   86.7484    8.2039 C.ar    1  UNL1        0.0312
     17 C          60.4054   85.6131    7.6349 C.ar    1  UNL1        0.1402
     18 F          59.7554   84.6301    6.7070 F       1  UNL1       -0.2042
     19 C          61.8539   85.4610    7.9939 C.ar    1  UNL1        0.0312
     20 C          62.5039   86.4441    8.9218 C.ar    1  UNL1        0.0215
     21 C          66.6185   92.5086   14.5208 C.3     1  UNL1        0.0762
     22 C          67.1083   93.5002   15.5341 C.3     1  UNL1        0.0242
     23 C          66.6708   92.1340   15.9724 C.3     1  UNL1        0.0242
     24 C          67.4877   93.5362   10.7873 C.ar    1  UNL1        0.1860
     25 C          67.3537   92.7186   12.0378 C.ar    1  UNL1        0.0352
     26 C          66.7524   93.3262   13.2704 C.ar    1  UNL1       -0.0019
     27 C          66.2849   94.7514   13.2525 C.ar    1  UNL1        0.0180
     28 C          66.4189   95.5689   12.0020 C.ar    1  UNL1        0.1001
     29 N          67.0202   94.9614   10.7695 N.ar    1  UNL1       -0.2257
     30 C          68.6905   92.3209    8.3224 C.3     1  UNL1        0.1834
     31 S          68.0891   92.9286    9.5548 S.O2    1  UNL1        0.0268
     32 O          67.6938   94.1406    8.7644 O.2     1  UNL1       -0.1671
     33 O          68.4843   91.7166   10.3453 O.2     1  UNL1       -0.1671
@<TRIPOS>BOND
     1    30    31    1
     2    31    32    2
     3    31    33    2
     4    31    24    1
     5    24    25   ar
     6    25    26   ar
     7    26    21    1
     8    21     1    1
     9     1     2   am
    10     2     3    2
    11     2     5    1
    12     5     6   ar
    13     6     7   ar
    14     7     8   ar
    15     8     9   ar
    16     9    10   ar
    17    10    11   ar
    18    11    12   ar
    19    12    13   ar
    20    13    14    1
    21    14    15   ar
    22    15    16   ar
    23    16    17   ar
    24    17    18    1
    25    17    19   ar
    26    19    20   ar
    27    21    22    1
    28    22    23    1
    29    26    27   ar
    30    27    28   ar
    31    28    29   ar
    32    29    24   ar
    33    23    21    1
    34    10     5   ar
    35    20    14   ar
    36    13     9   ar
    37     1     4    1
@<TRIPOS>MOLECULE
*****
 33 37 0 0 0
SMALL
GASTEIGER

@<TRIPOS>ATOM
      1 N          64.5100   89.9441   14.5654 N.am    1  UNL1       -0.3005
      2 C          63.5880   90.0703   13.3890 C.2     1  UNL1        0.2476
      3 O          63.0676   91.4178   12.9851 O.2     1  UNL1       -0.2701
      4 H          64.8515   89.0596   14.8305 H       1  UNL1        0.1499
      5 C          63.1862   88.8488   12.6166 C.ar    1  UNL1        0.0755
      6 C          62.4985   88.9920   11.2913 C.ar    1  UNL1        0.1035
      7 N          62.0968   87.7705   10.5189 N.ar    1  UNL1       -0.2406
      8 C          62.3829   86.4058   11.0718 C.ar    1  UNL1        0.1180
      9 C          63.0707   86.2626   12.3971 C.ar    1  UNL1        0.1036
     10 C          63.4723   87.4840   13.1695 C.ar    1  UNL1        0.0460
     11 C          64.1312   87.0335   14.4395 C.ar    1  UNL1        0.1222
     12 N          64.1367   85.5336   14.4520 N.ar    1  UNL1       -0.1635
     13 N          63.4813   85.0571   13.1897 N.ar    1  UNL1       -0.2281
     14 C          63.2730   83.6264   12.7902 C.ar    1  UNL1        0.0830
     15 C          63.7867   83.1340   11.4698 C.ar    1  UNL1        0.0215
     16 C          63.5784   81.7033   11.0703 C.ar    1  UNL1        0.0312
     17 C          62.8564   80.7649   11.9912 C.ar    1  UNL1        0.1402
     18 F          62.6481   79.3342   11.5916 F       1  UNL1       -0.2042
     19 C          62.3426   81.2573   13.3116 C.ar    1  UNL1        0.0312
     20 C          62.5509   82.6880   13.7111 C.ar    1  UNL1        0.0215
     21 C          64.9117   91.1655   15.3379 C.3     1  UNL1        0.0762
     22 C          64.8863   92.2491   16.3748 C.3     1  UNL1        0.0242
     23 C          63.8213   91.1928   16.3676 C.3     1  UNL1        0.0242
     24 C          67.2520   92.4646   12.4077 C.ar    1  UNL1        0.1860
     25 C          66.0221   92.0676   13.1692 C.ar    1  UNL1        0.0352
     26 C          66.1416   91.5624   14.5765 C.ar    1  UNL1       -0.0019
     27 C          67.4911   91.4541   15.2224 C.ar    1  UNL1        0.0180
     28 C          68.7210   91.8511   14.4609 C.ar    1  UNL1        0.1001
     29 N          68.6015   92.3563   13.0536 N.ar    1  UNL1       -0.2257
     30 C          67.0128   93.4749    9.5931 C.3     1  UNL1        0.1834
     31 S          67.1324   92.9698   11.0005 S.O2    1  UNL1        0.0268
     32 O          65.8715   93.6944   11.3678 O.2     1  UNL1       -0.1671
     33 O          68.3933   92.2451   10.6332 O.2     1  UNL1       -0.1671
@<TRIPOS>BOND
     1    30    31    1
     2    31    32    2
     3    31    33    2
     4    31    24    1
     5    24    25   ar
     6    25    26   ar
     7    26    21    1
     8    21     1    1
     9     1     2   am
    10     2     3    2
    11     2     5    1
    12     5     6   ar
    13     6     7   ar
    14     7     8   ar
    15     8     9   ar
    16     9    10   ar
    17    10    11   ar
    18    11    12   ar
    19    12    13   ar
    20    13    14    1
    21    14    15   ar
    22    15    16   ar
    23    16    17   ar
    24    17    18    1
    25    17    19   ar
    26    19    20   ar
    27    21    22    1
    28    22    23    1
    29    26    27   ar
    30    27    28   ar
    31    28    29   ar
    32    29    24   ar
    33    23    21    1
    34    10     5   ar
    35    20    14   ar
    36    13     9   ar
    37     1     4    1
@<TRIPOS>MOLECULE
*****
 33 37 0 0 0
SMALL
GASTEIGER

@<TRIPOS>ATOM
      1 N          63.9890   90.2343   11.2212 N.am    1  UNL1       -0.3005
      2 C          62.5630   89.8952   10.9026 C.2     1  UNL1        0.2476
      3 O          61.5430   90.9875   10.7744 O.2     1  UNL1       -0.2701
      4 H          64.6585   89.5173   11.3053 H       1  UNL1        0.1499
      5 C          62.1570   88.4638   10.7121 C.ar    1  UNL1        0.0755
      6 C          61.2869   88.0790    9.5525 C.ar    1  UNL1        0.1035
      7 N          60.8809   86.6476    9.3620 N.ar    1  UNL1       -0.2406
      8 C          61.3451   85.6010   10.3312 C.ar    1  UNL1        0.1180
      9 C          62.2152   85.9859   11.4908 C.ar    1  UNL1        0.1036
     10 C          62.6212   87.4172   11.6812 C.ar    1  UNL1        0.0460
     11 C          63.4794   87.4963   12.9090 C.ar    1  UNL1        0.1222
     12 N          63.6037   86.1137   13.4773 N.ar    1  UNL1       -0.1635
     13 N          62.8225   85.1802   12.6008 N.ar    1  UNL1       -0.2281
     14 C          62.6744   83.7009   12.7995 C.ar    1  UNL1        0.0830
     15 C          63.0070   82.7570   11.6821 C.ar    1  UNL1        0.0215
     16 C          62.8590   81.2776   11.8808 C.ar    1  UNL1        0.0312
     17 C          62.3783   80.7420   13.1969 C.ar    1  UNL1        0.1402
     18 F          62.2302   79.2626   13.3955 F       1  UNL1       -0.2042
     19 C          62.0457   81.6858   14.3142 C.ar    1  UNL1        0.0312
     20 C          62.1937   83.1652   14.1156 C.ar    1  UNL1        0.0215
     21 C          64.3951   91.6656   11.4117 C.3     1  UNL1        0.0762
     22 C          64.6969   93.0997   11.0918 C.3     1  UNL1        0.0242
     23 C          64.2360   92.1705   10.0081 C.3     1  UNL1        0.0242
     24 C          66.2270   92.3321   14.8686 C.ar    1  UNL1        0.1860
     25 C          65.9269   92.3398   13.3989 C.ar    1  UNL1        0.0352
     26 C          64.6951   91.6579   12.8813 C.ar    1  UNL1       -0.0019
     27 C          63.7634   90.9683   13.8334 C.ar    1  UNL1        0.0180
     28 C          64.0636   90.9607   15.3031 C.ar    1  UNL1        0.1001
     29 N          65.2953   91.6425   15.8206 N.ar    1  UNL1       -0.2257
     30 C          68.6905   93.6958   15.9035 C.3     1  UNL1        0.1834
     31 S          67.4587   93.0140   15.3861 S.O2    1  UNL1        0.0268
     32 O          66.8591   93.0542   16.7604 O.2     1  UNL1       -0.1671
     33 O          68.0583   92.9737   14.0117 O.2     1  UNL1       -0.1671
@<TRIPOS>BOND
     1    30    31    1
     2    31    32    2
     3    31    33    2
     4    31    24    1
     5    24    25   ar
     6    25    26   ar
     7    26    21    1
     8    21     1    1
     9     1     2   am
    10     2     3    2
    11     2     5    1
    12     5     6   ar
    13     6     7   ar
    14     7     8   ar
    15     8     9   ar
    16     9    10   ar
    17    10    11   ar
    18    11    12   ar
    19    12    13   ar
    20    13    14    1
    21    14    15   ar
    22    15    16   ar
    23    16    17   ar
    24    17    18    1
    25    17    19   ar
    26    19    20   ar
    27    21    22    1
    28    22    23    1
    29    26    27   ar
    30    27    28   ar
    31    28    29   ar
    32    29    24   ar
    33    23    21    1
    34    10     5   ar
    35    20    14   ar
    36    13     9   ar
    37     1     4    1
@<TRIPOS>MOLECULE
*****
 33 37 0 0 0
SMALL
GASTEIGER

@<TRIPOS>ATOM
      1 N          64.5485   88.0139   15.1589 N.am    1  UNL1       -0.3005
      2 C          64.0434   89.4058   14.9192 C.2     1  UNL1        0.2476
      3 O          62.5972   89.7292   15.1515 O.2     1  UNL1       -0.2701
      4 H          65.4977   87.8016   15.0064 H       1  UNL1        0.1499
      5 C          64.9844   90.4743   14.4471 C.ar    1  UNL1        0.0755
      6 C          66.1315   90.9002   15.3146 C.ar    1  UNL1        0.1035
      7 N          67.0725   91.9686   14.8425 N.ar    1  UNL1       -0.2406
      8 C          66.8665   92.6111   13.5029 C.ar    1  UNL1        0.1180
      9 C          65.7194   92.1852   12.6353 C.ar    1  UNL1        0.1036
     10 C          64.7784   91.1167   13.1074 C.ar    1  UNL1        0.0460
     11 C          63.7445   90.9054   12.0413 C.ar    1  UNL1        0.1222
     12 N          64.0466   91.8433   10.9103 N.ar    1  UNL1       -0.1635
     13 N          65.2671   92.6342   11.2774 N.ar    1  UNL1       -0.2281
     14 C          65.9207   93.6890   10.4347 C.ar    1  UNL1        0.0830
     15 C          65.3873   95.0909   10.4407 C.ar    1  UNL1        0.0215
     16 C          66.0409   96.1457    9.5979 C.ar    1  UNL1        0.0312
     17 C          67.2279   95.7986    8.7490 C.ar    1  UNL1        0.1402
     18 F          67.8814   96.8533    7.9063 F       1  UNL1       -0.2042
     19 C          67.7612   94.3966    8.7430 C.ar    1  UNL1        0.0312
     20 C          67.1077   93.3419    9.5858 C.ar    1  UNL1        0.0215
     21 C          63.6075   86.9454   15.6309 C.3     1  UNL1        0.0762
     22 C          62.6371   86.2073   16.5047 C.3     1  UNL1        0.0242
     23 C          63.1960   87.5257   16.9516 C.3     1  UNL1        0.0242
     24 C          63.0047   85.3187   12.0615 C.ar    1  UNL1        0.1860
     25 C          62.9200   86.2700   13.2182 C.ar    1  UNL1        0.0352
     26 C          63.6922   85.9941   14.4743 C.ar    1  UNL1       -0.0019
     27 C          64.5490   84.7669   14.5737 C.ar    1  UNL1        0.0180
     28 C          64.6336   83.8157   13.4170 C.ar    1  UNL1        0.1001
     29 N          63.8614   84.0916   12.1609 N.ar    1  UNL1       -0.2257
     30 C          61.4604   85.8706    9.5494 C.3     1  UNL1        0.1834
     31 S          62.2325   85.5947   10.8055 S.O2    1  UNL1        0.0268
     32 O          61.3248   86.5155   11.5658 O.2     1  UNL1       -0.1671
     33 O          63.1402   84.6738   10.0452 O.2     1  UNL1       -0.1671
@<TRIPOS>BOND
     1    30    31    1
     2    31    32    2
     3    31    33    2
     4    31    24    1
     5    24    25   ar
     6    25    26   ar
     7    26    21    1
     8    21     1    1
     9     1     2   am
    10     2     3    2
    11     2     5    1
    12     5     6   ar
    13     6     7   ar
    14     7     8   ar
    15     8     9   ar
    16     9    10   ar
    17    10    11   ar
    18    11    12   ar
    19    12    13   ar
    20    13    14    1
    21    14    15   ar
    22    15    16   ar
    23    16    17   ar
    24    17    18    1
    25    17    19   ar
    26    19    20   ar
    27    21    22    1
    28    22    23    1
    29    26    27   ar
    30    27    28   ar
    31    28    29   ar
    32    29    24   ar
    33    23    21    1
    34    10     5   ar
    35    20    14   ar
    36    13     9   ar
    37     1     4    1
@<TRIPOS>MOLECULE
*****
 33 37 0 0 0
SMALL
GASTEIGER

@<TRIPOS>ATOM
      1 N          64.3190   89.7907   14.4242 N.am    1  UNL1       -0.3005
      2 C          63.8805   88.4455   14.9222 C.2     1  UNL1        0.2476
      3 O          63.6535   88.2260   16.3886 O.2     1  UNL1       -0.2701
      4 H          64.4680   89.9347   13.4618 H       1  UNL1        0.1499
      5 C          63.6690   87.3196   13.9538 C.ar    1  UNL1        0.0755
      6 C          63.9914   85.9117   14.3585 C.ar    1  UNL1        0.1035
      7 N          63.7799   84.7859   13.3901 N.ar    1  UNL1       -0.2406
      8 C          63.2461   85.0681   12.0170 C.ar    1  UNL1        0.1180
      9 C          62.9237   86.4760   11.6123 C.ar    1  UNL1        0.1036
     10 C          63.1352   87.6017   12.5807 C.ar    1  UNL1        0.0460
     11 C          62.7304   88.8777   11.9038 C.ar    1  UNL1        0.1222
     12 N          62.2687   88.5405   10.5170 N.ar    1  UNL1       -0.1635
     13 N          62.3882   87.0561   10.3369 N.ar    1  UNL1       -0.2281
     14 C          62.0343   86.2869    9.0987 C.ar    1  UNL1        0.0830
     15 C          60.6546   86.3912    8.5196 C.ar    1  UNL1        0.0215
     16 C          60.3007   85.6220    7.2814 C.ar    1  UNL1        0.0312
     17 C          61.3266   84.7485    6.6222 C.ar    1  UNL1        0.1402
     18 F          60.9728   83.9793    5.3841 F       1  UNL1       -0.2042
     19 C          62.7064   84.6443    7.2013 C.ar    1  UNL1        0.0312
     20 C          63.0603   85.4135    8.4395 C.ar    1  UNL1        0.0215
     21 C          64.5304   90.9165   15.3926 C.3     1  UNL1        0.0762
     22 C          64.3215   91.8190   16.5724 C.3     1  UNL1        0.0242
     23 C          63.3933   90.6641   16.3378 C.3     1  UNL1        0.0242
     24 C          66.9487   92.5842   12.7239 C.ar    1  UNL1        0.1860
     25 C          65.7381   91.9408   13.3329 C.ar    1  UNL1        0.0352
     26 C          65.7409   91.5599   14.7837 C.ar    1  UNL1       -0.0019
     27 C          66.9543   91.8225   15.6257 C.ar    1  UNL1        0.0180
     28 C          68.1647   92.4659   15.0167 C.ar    1  UNL1        0.1001
     29 N          68.1619   92.8467   13.5659 N.ar    1  UNL1       -0.2257
     30 C          66.9428   93.3458    9.8222 C.3     1  UNL1        0.1834
     31 S          66.9458   92.9650   11.2731 S.O2    1  UNL1        0.0268
     32 O          68.2312   92.2178   11.0744 O.2     1  UNL1       -0.1671
     33 O          65.6604   93.7121   11.4718 O.2     1  UNL1       -0.1671
@<TRIPOS>BOND
     1    30    31    1
     2    31    32    2
     3    31    33    2
     4    31    24    1
     5    24    25   ar
     6    25    26   ar
     7    26    21    1
     8    21     1    1
     9     1     2   am
    10     2     3    2
    11     2     5    1
    12     5     6   ar
    13     6     7   ar
    14     7     8   ar
    15     8     9   ar
    16     9    10   ar
    17    10    11   ar
    18    11    12   ar
    19    12    13   ar
    20    13    14    1
    21    14    15   ar
    22    15    16   ar
    23    16    17   ar
    24    17    18    1
    25    17    19   ar
    26    19    20   ar
    27    21    22    1
    28    22    23    1
    29    26    27   ar
    30    27    28   ar
    31    28    29   ar
    32    29    24   ar
    33    23    21    1
    34    10     5   ar
    35    20    14   ar
    36    13     9   ar
    37     1     4    1
