@<TRIPOS>MOLECULE
*****
 20 22 0 0 0
SMALL
GASTEIGER

@<TRIPOS>ATOM
      1 C          63.0159   84.0402   13.2755 C.ar    1  UNL1        0.1926
      2 N          63.8198   83.0774   12.4529 N.ar    1  UNL1       -0.1870
      3 C          63.9249   83.2650   10.9684 C.ar    1  UNL1        0.2203
      4 O          64.7289   82.3022   10.1458 O.3     1  UNL1       -0.4921
      5 C          63.2261   84.4155   10.3065 C.ar    1  UNL1        0.0444
      6 C          62.4221   85.3783   11.1291 C.ar    1  UNL1        0.0616
      7 N          62.3170   85.1907   12.6136 N.ar    1  UNL1       -0.2257
      8 C          61.8476   86.4105   10.2047 C.3     1  UNL1        0.0461
      9 C          62.2965   86.0857    8.8109 C.3     1  UNL1        0.0112
     10 C          63.1485   84.8527    8.8737 C.3     1  UNL1        0.0327
     11 H          65.1654   81.5836   10.5593 H       1  UNL1        0.2937
     12 S          62.9108   83.8526   14.7600 S.3     1  UNL1       -0.0708
     13 C          63.8472   84.5828   15.6765 C.3     1  UNL1        0.0913
     14 C          63.5424   90.5573   16.1376 C.3     1  UNL1        0.0310
     15 C          63.6186   89.0637   16.0223 C.ar    1  UNL1       -0.0219
     16 C          64.3311   88.4365   14.8609 C.ar    1  UNL1       -0.0046
     17 C          64.4074   86.9428   14.7456 C.ar    1  UNL1       -0.0037
     18 C          63.7710   86.0764   15.7917 C.ar    1  UNL1       -0.0109
     19 C          63.0585   86.7036   16.9531 C.ar    1  UNL1       -0.0037
     20 C          62.9823   88.1972   17.0685 C.ar    1  UNL1       -0.0046
@<TRIPOS>BOND
     1    14    15    1
     2    15    16   ar
     3    16    17   ar
     4    17    18   ar
     5    18    13    1
     6    13    12    1
     7    12     1    1
     8     1     2   ar
     9     2     3   ar
    10     3     4    1
    11     3     5   ar
    12     5     6   ar
    13     6     7   ar
    14     6     8    1
    15     8     9    1
    16     9    10    1
    17    18    19   ar
    18    19    20   ar
    19    20    15   ar
    20     7     1   ar
    21    10     5    1
    22     4    11    1
@<TRIPOS>MOLECULE
*****
 20 22 0 0 0
SMALL
GASTEIGER

@<TRIPOS>ATOM
      1 C          61.8629   89.7854   10.6310 C.ar    1  UNL1        0.1926
      2 N          61.7820   89.5007   12.1014 N.ar    1  UNL1       -0.1870
      3 C          62.7601   90.1375   13.0436 C.ar    1  UNL1        0.2203
      4 O          62.6792   89.8527   14.5141 O.3     1  UNL1       -0.4921
      5 C          63.8191   91.0591   12.5154 C.ar    1  UNL1        0.0444
      6 C          63.9001   91.3439   11.0449 C.ar    1  UNL1        0.0616
      7 N          62.9220   90.7071   10.1026 N.ar    1  UNL1       -0.2257
      8 C          65.0437   92.2876   10.8177 C.3     1  UNL1        0.0461
      9 C          65.6695   92.5861   12.1478 C.3     1  UNL1        0.0112
     10 C          64.9127   91.8268   13.1970 C.3     1  UNL1        0.0327
     11 H          62.0176   89.2770   14.8441 H       1  UNL1        0.2937
     12 S          60.8848   89.1486    9.6888 S.3     1  UNL1       -0.0708
     13 C          60.3888   87.7573    9.9500 C.3     1  UNL1        0.0913
     14 C          64.2617   83.1787   10.1438 C.3     1  UNL1        0.0310
     15 C          63.2935   84.3233   10.0953 C.ar    1  UNL1       -0.0219
     16 C          62.5548   84.7337   11.3346 C.ar    1  UNL1       -0.0046
     17 C          61.5865   85.8784   11.2862 C.ar    1  UNL1       -0.0037
     18 C          61.3570   86.6126    9.9985 C.ar    1  UNL1       -0.0109
     19 C          62.0958   86.2022    8.7592 C.ar    1  UNL1       -0.0037
     20 C          63.0640   85.0576    8.8076 C.ar    1  UNL1       -0.0046
@<TRIPOS>BOND
     1    14    15    1
     2    15    16   ar
     3    16    17   ar
     4    17    18   ar
     5    18    13    1
     6    13    12    1
     7    12     1    1
     8     1     2   ar
     9     2     3   ar
    10     3     4    1
    11     3     5   ar
    12     5     6   ar
    13     6     7   ar
    14     6     8    1
    15     8     9    1
    16     9    10    1
    17    18    19   ar
    18    19    20   ar
    19    20    15   ar
    20     7     1   ar
    21    10     5    1
    22     4    11    1
@<TRIPOS>MOLECULE
*****
 20 22 0 0 0
SMALL
GASTEIGER

@<TRIPOS>ATOM
      1 C          62.1630   89.7062   10.6266 C.ar    1  UNL1        0.1926
      2 N          62.8937   90.8899   10.0655 N.ar    1  UNL1       -0.1870
      3 C          63.9203   91.6007   10.8966 C.ar    1  UNL1        0.2203
      4 O          64.6509   92.7844   10.3355 O.3     1  UNL1       -0.4921
      5 C          64.2162   91.1277   12.2890 C.ar    1  UNL1        0.0444
      6 C          63.4856   89.9439   12.8502 C.ar    1  UNL1        0.0616
      7 N          62.4590   89.2332   12.0190 N.ar    1  UNL1       -0.2257
      8 C          63.9860   89.7086   14.2445 C.3     1  UNL1        0.0461
      9 C          65.0259   90.7470   14.5451 C.3     1  UNL1        0.0112
     10 C          65.1682   91.6240   13.3365 C.3     1  UNL1        0.0327
     11 H          64.4660   93.0799    9.4657 H       1  UNL1        0.2937
     12 S          61.1364   88.9955    9.7953 S.3     1  UNL1       -0.0708
     13 C          60.6322   87.6472   10.2174 C.3     1  UNL1        0.0913
     14 C          64.3123   82.9090   10.1393 C.3     1  UNL1        0.0310
     15 C          63.3923   84.0935   10.1588 C.ar    1  UNL1       -0.0219
     16 C          63.1623   84.8852    8.9057 C.ar    1  UNL1       -0.0046
     17 C          62.2422   86.0698    8.9252 C.ar    1  UNL1       -0.0037
     18 C          61.5523   86.4627   10.1978 C.ar    1  UNL1       -0.0109
     19 C          61.7823   85.6710   11.4509 C.ar    1  UNL1       -0.0037
     20 C          62.7023   84.4864   11.4315 C.ar    1  UNL1       -0.0046
@<TRIPOS>BOND
     1    14    15    1
     2    15    16   ar
     3    16    17   ar
     4    17    18   ar
     5    18    13    1
     6    13    12    1
     7    12     1    1
     8     1     2   ar
     9     2     3   ar
    10     3     4    1
    11     3     5   ar
    12     5     6   ar
    13     6     7   ar
    14     6     8    1
    15     8     9    1
    16     9    10    1
    17    18    19   ar
    18    19    20   ar
    19    20    15   ar
    20     7     1   ar
    21    10     5    1
    22     4    11    1
@<TRIPOS>MOLECULE
*****
 20 22 0 0 0
SMALL
GASTEIGER

@<TRIPOS>ATOM
      1 C          61.8045   89.9187   11.3112 C.ar    1  UNL1        0.1926
      2 N          62.6045   90.8947   10.5005 N.ar    1  UNL1       -0.1870
      3 C          63.8226   91.5402   11.0919 C.ar    1  UNL1        0.2203
      4 O          64.6226   92.5162   10.2812 O.3     1  UNL1       -0.4921
      5 C          64.2405   91.2096   12.4941 C.ar    1  UNL1        0.0444
      6 C          63.4405   90.2336   13.3048 C.ar    1  UNL1        0.0616
      7 N          62.2225   89.5881   12.7134 N.ar    1  UNL1       -0.2257
      8 C          64.0915   90.1049   14.6500 C.3     1  UNL1        0.0461
      9 C          65.2940   91.0014   14.6706 C.3     1  UNL1        0.0112
     10 C          65.3861   91.6842   13.3382 C.3     1  UNL1        0.0327
     11 H          64.3615   92.7227    9.4053 H       1  UNL1        0.2937
     12 S          60.5865   89.2731   10.7198 S.3     1  UNL1       -0.0708
     13 C          60.4261   87.7827   10.7746 C.3     1  UNL1        0.0913
     14 C          62.1633   84.4056    6.1295 C.3     1  UNL1        0.0310
     15 C          61.7290   85.2499    7.2907 C.ar    1  UNL1       -0.0219
     16 C          62.7108   85.6072    8.3669 C.ar    1  UNL1       -0.0046
     17 C          62.2766   86.4515    9.5283 C.ar    1  UNL1       -0.0037
     18 C          60.8604   86.9385    9.6133 C.ar    1  UNL1       -0.0109
     19 C          59.8785   86.5811    8.5371 C.ar    1  UNL1       -0.0037
     20 C          60.3127   85.7369    7.3759 C.ar    1  UNL1       -0.0046
@<TRIPOS>BOND
     1    14    15    1
     2    15    16   ar
     3    16    17   ar
     4    17    18   ar
     5    18    13    1
     6    13    12    1
     7    12     1    1
     8     1     2   ar
     9     2     3   ar
    10     3     4    1
    11     3     5   ar
    12     5     6   ar
    13     6     7   ar
    14     6     8    1
    15     8     9    1
    16     9    10    1
    17    18    19   ar
    18    19    20   ar
    19    20    15   ar
    20     7     1   ar
    21    10     5    1
    22     4    11    1
@<TRIPOS>MOLECULE
*****
 20 22 0 0 0
SMALL
GASTEIGER

@<TRIPOS>ATOM
      1 C          66.8658   93.0054   11.9298 C.ar    1  UNL1        0.1926
      2 N          67.5555   92.3345   10.7791 N.ar    1  UNL1       -0.1870
      3 C          67.8500   93.1071    9.5276 C.ar    1  UNL1        0.2203
      4 O          68.5397   92.4361    8.3769 O.3     1  UNL1       -0.4921
      5 C          67.4548   94.5505    9.4267 C.ar    1  UNL1        0.0444
      6 C          66.7650   95.2215   10.5775 C.ar    1  UNL1        0.0616
      7 N          66.4705   94.4489   11.8290 N.ar    1  UNL1       -0.2257
      8 C          66.4966   96.6456   10.1905 C.3     1  UNL1        0.0461
      9 C          67.0204   96.8548    8.8006 C.3     1  UNL1        0.0112
     10 C          67.6126   95.5600    8.3286 C.3     1  UNL1        0.0327
     11 H          68.7866   91.5345    8.4399 H       1  UNL1        0.2937
     12 S          66.5713   92.2328   13.1814 S.3     1  UNL1       -0.0708
     13 C          65.1526   91.9133   13.5493 C.3     1  UNL1        0.0913
     14 C          61.7792   88.5777    9.8758 C.3     1  UNL1        0.0310
     15 C          62.6225   89.4116   10.7941 C.ar    1  UNL1       -0.0219
     16 C          63.0750   90.7758   10.3649 C.ar    1  UNL1       -0.0046
     17 C          63.9184   91.6098   11.2833 C.ar    1  UNL1       -0.0037
     18 C          64.3092   91.0794   12.6309 C.ar    1  UNL1       -0.0109
     19 C          63.8568   89.7152   13.0601 C.ar    1  UNL1       -0.0037
     20 C          63.0135   88.8813   12.1418 C.ar    1  UNL1       -0.0046
@<TRIPOS>BOND
     1    14    15    1
     2    15    16   ar
     3    16    17   ar
     4    17    18   ar
     5    18    13    1
     6    13    12    1
     7    12     1    1
     8     1     2   ar
     9     2     3   ar
    10     3     4    1
    11     3     5   ar
    12     5     6   ar
    13     6     7   ar
    14     6     8    1
    15     8     9    1
    16     9    10    1
    17    18    19   ar
    18    19    20   ar
    19    20    15   ar
    20     7     1   ar
    21    10     5    1
    22     4    11    1
@<TRIPOS>MOLECULE
*****
 20 22 0 0 0
SMALL
GASTEIGER

@<TRIPOS>ATOM
      1 C          62.1548   88.9173   10.8024 C.ar    1  UNL1        0.1926
      2 N          62.5657   90.1689   10.0852 N.ar    1  UNL1       -0.1870
      3 C          63.4859   91.1478   10.7523 C.ar    1  UNL1        0.2203
      4 O          63.8969   92.3995   10.0350 O.3     1  UNL1       -0.4921
      5 C          63.9952   90.8750   12.1365 C.ar    1  UNL1        0.0444
      6 C          63.5842   89.6234   12.8538 C.ar    1  UNL1        0.0616
      7 N          62.6640   88.6445   12.1867 N.ar    1  UNL1       -0.2257
      8 C          64.2421   89.6242   14.2018 C.3     1  UNL1        0.0461
      9 C          65.0597   90.8765   14.3177 C.3     1  UNL1        0.0112
     10 C          64.9071   91.6495   13.0413 C.3     1  UNL1        0.0327
     11 H          63.5788   92.5699    9.1703 H       1  UNL1        0.2937
     12 S          61.2345   87.9384   10.1353 S.3     1  UNL1       -0.0708
     13 C          61.7993   86.8235    9.3058 C.3     1  UNL1        0.0913
     14 C          64.1998   82.0164   11.9758 C.3     1  UNL1        0.0310
     15 C          63.5997   83.2181   11.3083 C.ar    1  UNL1       -0.0219
     16 C          62.7085   84.1410   12.0856 C.ar    1  UNL1       -0.0046
     17 C          62.1083   85.3428   11.4181 C.ar    1  UNL1       -0.0037
     18 C          62.3994   85.6217    9.9733 C.ar    1  UNL1       -0.0109
     19 C          63.2905   84.6989    9.1960 C.ar    1  UNL1       -0.0037
     20 C          63.8907   83.4971    9.8634 C.ar    1  UNL1       -0.0046
@<TRIPOS>BOND
     1    14    15    1
     2    15    16   ar
     3    16    17   ar
     4    17    18   ar
     5    18    13    1
     6    13    12    1
     7    12     1    1
     8     1     2   ar
     9     2     3   ar
    10     3     4    1
    11     3     5   ar
    12     5     6   ar
    13     6     7   ar
    14     6     8    1
    15     8     9    1
    16     9    10    1
    17    18    19   ar
    18    19    20   ar
    19    20    15   ar
    20     7     1   ar
    21    10     5    1
    22     4    11    1
@<TRIPOS>MOLECULE
*****
 20 22 0 0 0
SMALL
GASTEIGER

@<TRIPOS>ATOM
      1 C          61.5134   86.9485   10.6206 C.ar    1  UNL1        0.1926
      2 N          61.8543   86.5681    9.2103 N.ar    1  UNL1       -0.1870
      3 C          62.6744   85.3412    8.9418 C.ar    1  UNL1        0.2203
      4 O          63.0154   84.9609    7.5314 O.3     1  UNL1       -0.4921
      5 C          63.1536   84.4947   10.0836 C.ar    1  UNL1        0.0444
      6 C          62.8126   84.8750   11.4940 C.ar    1  UNL1        0.0616
      7 N          61.9925   86.1019   11.7625 N.ar    1  UNL1       -0.2257
      8 C          63.4206   83.8540   12.4093 C.3     1  UNL1        0.0461
      9 C          64.1374   82.8427   11.5647 C.3     1  UNL1        0.0112
     10 C          63.9723   83.2386   10.1273 C.3     1  UNL1        0.0327
     11 H          62.7160   85.4897    6.8182 H       1  UNL1        0.2937
     12 S          60.6932   88.1754   10.8892 S.3     1  UNL1       -0.0708
     13 C          61.1300   89.5034   10.3453 C.3     1  UNL1        0.0913
     14 C          65.7734   92.3810   12.8270 C.3     1  UNL1        0.0310
     15 C          64.6125   91.6616   12.2066 C.ar    1  UNL1       -0.0219
     16 C          64.2571   91.9098   10.7706 C.ar    1  UNL1       -0.0046
     17 C          63.0962   91.1904   10.1501 C.ar    1  UNL1       -0.0037
     18 C          62.2908   90.2228   10.9657 C.ar    1  UNL1       -0.0109
     19 C          62.6463   89.9746   12.4017 C.ar    1  UNL1       -0.0037
     20 C          63.8071   90.6940   13.0222 C.ar    1  UNL1       -0.0046
@<TRIPOS>BOND
     1    14    15    1
     2    15    16   ar
     3    16    17   ar
     4    17    18   ar
     5    18    13    1
     6    13    12    1
     7    12     1    1
     8     1     2   ar
     9     2     3   ar
    10     3     4    1
    11     3     5   ar
    12     5     6   ar
    13     6     7   ar
    14     6     8    1
    15     8     9    1
    16     9    10    1
    17    18    19   ar
    18    19    20   ar
    19    20    15   ar
    20     7     1   ar
    21    10     5    1
    22     4    11    1
@<TRIPOS>MOLECULE
*****
 20 22 0 0 0
SMALL
GASTEIGER

@<TRIPOS>ATOM
      1 C          62.4457   90.1447   11.8627 C.ar    1  UNL1        0.1926
      2 N          62.3937   89.5313   13.2305 N.ar    1  UNL1       -0.1870
      3 C          63.4161   89.9087   14.2611 C.ar    1  UNL1        0.2203
      4 O          63.3640   89.2952   15.6290 O.3     1  UNL1       -0.4921
      5 C          64.4906   90.8995   13.9239 C.ar    1  UNL1        0.0444
      6 C          64.5427   91.5130   12.5561 C.ar    1  UNL1        0.0616
      7 N          63.5203   91.1356   11.5255 N.ar    1  UNL1       -0.2257
      8 C          65.7102   92.4538   12.5141 C.3     1  UNL1        0.0461
      9 C          66.3797   92.4218   13.8560 C.3     1  UNL1        0.0112
     10 C          65.6260   91.4612   14.7273 C.3     1  UNL1        0.0327
     11 H          62.6928   88.6763   15.8396 H       1  UNL1        0.2937
     12 S          61.4232   89.7673   10.8321 S.3     1  UNL1       -0.0708
     13 C          60.7739   88.4160   10.8795 C.3     1  UNL1        0.0913
     14 C          61.6966   84.4866    6.4400 C.3     1  UNL1        0.0310
     15 C          61.4659   85.4690    7.5499 C.ar    1  UNL1       -0.0219
     16 C          62.5693   85.7806    8.5170 C.ar    1  UNL1       -0.0046
     17 C          62.3387   86.7630    9.6270 C.ar    1  UNL1       -0.0037
     18 C          61.0046   87.4337    9.7697 C.ar    1  UNL1       -0.0109
     19 C          59.9012   87.1220    8.8025 C.ar    1  UNL1       -0.0037
     20 C          60.1318   86.1397    7.6927 C.ar    1  UNL1       -0.0046
@<TRIPOS>BOND
     1    14    15    1
     2    15    16   ar
     3    16    17   ar
     4    17    18   ar
     5    18    13    1
     6    13    12    1
     7    12     1    1
     8     1     2   ar
     9     2     3   ar
    10     3     4    1
    11     3     5   ar
    12     5     6   ar
    13     6     7   ar
    14     6     8    1
    15     8     9    1
    16     9    10    1
    17    18    19   ar
    18    19    20   ar
    19    20    15   ar
    20     7     1   ar
    21    10     5    1
    22     4    11    1
@<TRIPOS>MOLECULE
*****
 20 22 0 0 0
SMALL
GASTEIGER

@<TRIPOS>ATOM
      1 C          66.6751   92.8967   13.1103 C.ar    1  UNL1        0.1926
      2 N          66.1272   94.2929   13.1215 N.ar    1  UNL1       -0.1870
      3 C          66.2147   95.1429   11.8887 C.ar    1  UNL1        0.2203
      4 O          65.6667   96.5392   11.9000 O.3     1  UNL1       -0.4921
      5 C          66.8502   94.5967   10.6447 C.ar    1  UNL1        0.0444
      6 C          67.3982   93.2004   10.6334 C.ar    1  UNL1        0.0616
      7 N          67.3107   92.3504   11.8662 N.ar    1  UNL1       -0.2257
      8 C          67.9645   92.9356    9.2699 C.3     1  UNL1        0.0461
      9 C          67.7666   94.1683    8.4385 C.3     1  UNL1        0.0112
     10 C          67.0779   95.1949    9.2881 C.3     1  UNL1        0.0327
     11 H          65.2697   96.8805   12.6771 H       1  UNL1        0.2937
     12 S          66.5876   92.0467   14.3431 S.3     1  UNL1       -0.0708
     13 C          65.2700   91.4632   14.7599 C.3     1  UNL1        0.0913
     14 C          62.1589   88.0439   10.9350 C.3     1  UNL1        0.0310
     15 C          62.9367   88.8988   11.8912 C.ar    1  UNL1       -0.0219
     16 C          63.5604   88.2847   13.1093 C.ar    1  UNL1       -0.0046
     17 C          64.3382   89.1395   14.0656 C.ar    1  UNL1       -0.0037
     18 C          64.4922   90.6084   13.8037 C.ar    1  UNL1       -0.0109
     19 C          63.8685   91.2225   12.5855 C.ar    1  UNL1       -0.0037
     20 C          63.0908   90.3677   11.6293 C.ar    1  UNL1       -0.0046
@<TRIPOS>BOND
     1    14    15    1
     2    15    16   ar
     3    16    17   ar
     4    17    18   ar
     5    18    13    1
     6    13    12    1
     7    12     1    1
     8     1     2   ar
     9     2     3   ar
    10     3     4    1
    11     3     5   ar
    12     5     6   ar
    13     6     7   ar
    14     6     8    1
    15     8     9    1
    16     9    10    1
    17    18    19   ar
    18    19    20   ar
    19    20    15   ar
    20     7     1   ar
    21    10     5    1
    22     4    11    1
