@<TRIPOS>MOLECULE
*****
 43 46 0 0 0
SMALL
GASTEIGER

@<TRIPOS>ATOM
      1 C          63.2587   90.3350   12.4147 C.ar    1  UNL1        0.2144
      2 C          62.9772   90.6113   10.9676 C.ar    1  UNL1        0.1822
      3 O          63.7383   91.6844   10.2470 O.2     1  UNL1       -0.4500
      4 C          64.7810   92.4812   10.9737 C.ar    1  UNL1        0.1545
      5 C          65.5421   93.5543   10.2532 C.ar    1  UNL1        0.0744
      6 C          66.5848   94.3510   10.9798 C.ar    1  UNL1        0.1397
      7 O          67.3459   95.4241   10.2593 O.3     1  UNL1       -0.5053
      8 C          66.8663   94.0746   12.4270 C.ar    1  UNL1        0.0735
      9 C          66.1052   93.0015   13.1475 C.ar    1  UNL1        0.1428
     10 O          66.3868   92.7252   14.5947 O.3     1  UNL1       -0.5052
     11 C          65.0626   92.2048   12.4209 C.ar    1  UNL1        0.1104
     12 C          64.3014   91.1317   13.1414 C.ar    1  UNL1        0.2382
     13 O          64.5829   90.8553   14.5886 O.2     1  UNL1       -0.2830
     14 H          67.1701   95.5968    9.3553 H       1  UNL1        0.2922
     15 H          67.0381   93.2229   15.0487 H       1  UNL1        0.2922
     16 C          61.9345   89.8146   10.2409 C.ar    1  UNL1        0.0379
     17 C          60.4890   90.2022   10.3419 C.ar    1  UNL1        0.0062
     18 C          59.4464   89.4054    9.6152 C.ar    1  UNL1        0.0367
     19 C          59.8492   88.2210    8.7876 C.ar    1  UNL1        0.1337
     20 O          58.8065   87.4242    8.0609 O.3     1  UNL1       -0.5055
     21 C          61.2947   87.8334    8.6866 C.ar    1  UNL1        0.0367
     22 C          62.3374   88.6302    9.4133 C.ar    1  UNL1        0.0062
     23 H          57.9035   87.6664    8.1240 H       1  UNL1        0.2922
     24 O          62.4976   89.2618   13.1353 O.3     1  UNL1       -0.4433
     25 C          64.0251   85.6623   13.8131 C.3     1  UNL1        0.2569
     26 C          63.6151   84.9405   12.5637 C.3     1  UNL1        0.2392
     27 C          62.8326   85.6591   11.5048 C.3     1  UNL1        0.1627
     28 C          62.4226   84.9373   10.2555 C.3     1  UNL1        0.0362
     29 O          62.4600   87.0996   11.6953 O.3     1  UNL1       -0.3164
     30 C          62.8701   87.8214   12.9448 C.3     1  UNL1        0.3334
     31 C          63.6526   87.1027   14.0036 C.3     1  UNL1        0.2815
     32 O          64.8077   84.9436   14.8719 O.3     1  UNL1       -0.4443
     33 C          62.9185   84.0300   16.4037 C.3     1  UNL1        0.1212
     34 C          64.1819   83.8080   15.6261 C.2     1  UNL1        0.3177
     35 O          64.8194   82.4505   15.6026 O.2     1  UNL1       -0.2501
     36 O          63.9877   83.5000   12.3732 O.3     1  UNL1       -0.4458
     37 C          62.9343   82.4354   12.4582 C.2     1  UNL1        0.3176
     38 C          62.8850   81.3453   11.4289 C.3     1  UNL1        0.1212
     39 O          61.9305   82.4608   13.5724 O.2     1  UNL1       -0.2501
     40 O          64.0626   87.8245   15.2529 O.3     1  UNL1       -0.4416
     41 C          63.0415   88.1429   16.3046 C.2     1  UNL1        0.3178
     42 C          62.9006   87.2560   17.5060 C.3     1  UNL1        0.1212
     43 O          62.1613   89.3482   16.1548 O.2     1  UNL1       -0.2501
@<TRIPOS>BOND
     1    33    34    1
     2    34    35    2
     3    34    32    1
     4    25    32    1
     5    25    26    1
     6    26    36    1
     7    36    37    1
     8    37    38    1
     9    37    39    2
    10    26    27    1
    11    27    28    1
    12    27    29    1
    13    29    30    1
    14    30    24    1
    15    24     1    1
    16     1     2   ar
    17     2    16    1
    18    16    17   ar
    19    17    18   ar
    20    18    19   ar
    21    19    20    1
    22    19    21   ar
    23    21    22   ar
    24     2     3   ar
    25     3     4   ar
    26     4     5   ar
    27     5     6   ar
    28     6     7    1
    29     6     8   ar
    30     8     9   ar
    31     9    10    1
    32     9    11   ar
    33    11    12   ar
    34    12    13    2
    35    30    31    1
    36    31    40    1
    37    40    41    1
    38    41    42    1
    39    41    43    2
    40    31    25    1
    41    12     1   ar
    42    22    16   ar
    43    11     4   ar
    44    20    23    1
    45     7    14    1
    46    10    15    1
@<TRIPOS>MOLECULE
*****
 43 46 0 0 0
SMALL
GASTEIGER

@<TRIPOS>ATOM
      1 C          62.6058   88.4657   12.1515 C.ar    1  UNL1        0.2144
      2 C          62.3529   88.9790   10.7650 C.ar    1  UNL1        0.1822
      3 O          63.0336   90.2293   10.2924 O.2     1  UNL1       -0.4500
      4 C          63.9672   90.9663   11.2063 C.ar    1  UNL1        0.1545
      5 C          64.6480   92.2166   10.7337 C.ar    1  UNL1        0.0744
      6 C          65.5815   92.9535   11.6477 C.ar    1  UNL1        0.1397
      7 O          66.2623   94.2039   11.1751 O.3     1  UNL1       -0.5053
      8 C          65.8343   92.4402   13.0343 C.ar    1  UNL1        0.0735
      9 C          65.1536   91.1899   13.5069 C.ar    1  UNL1        0.1428
     10 O          65.4064   90.6766   14.8934 O.3     1  UNL1       -0.5052
     11 C          64.2201   90.4530   12.5929 C.ar    1  UNL1        0.1104
     12 C          63.5393   89.2026   13.0655 C.ar    1  UNL1        0.2382
     13 O          63.7921   88.6893   14.4521 O.2     1  UNL1       -0.2830
     14 H          66.1044   94.5245   10.3090 H       1  UNL1        0.2922
     15 H          65.9896   91.1369   15.4644 H       1  UNL1        0.2922
     16 C          61.4193   88.2420    9.8510 C.ar    1  UNL1        0.0379
     17 C          59.9662   88.6113    9.8067 C.ar    1  UNL1        0.0062
     18 C          59.0327   87.8743    8.8927 C.ar    1  UNL1        0.0367
     19 C          59.5523   86.7680    8.0231 C.ar    1  UNL1        0.1337
     20 O          58.6187   86.0310    7.1091 O.3     1  UNL1       -0.5055
     21 C          61.0054   86.3988    8.0674 C.ar    1  UNL1        0.0367
     22 C          61.9389   87.1358    8.9814 C.ar    1  UNL1        0.0062
     23 H          57.7110   86.2617    7.0814 H       1  UNL1        0.2922
     24 O          61.9250   87.2153   12.6241 O.3     1  UNL1       -0.4433
     25 C          63.3700   83.5464   13.0718 C.3     1  UNL1        0.2569
     26 C          63.6841   83.1898   11.6491 C.3     1  UNL1        0.2392
     27 C          63.4118   84.1751   10.5513 C.3     1  UNL1        0.1627
     28 C          63.7258   83.8185    9.1286 C.3     1  UNL1        0.0362
     29 O          62.8254   85.5170   10.8763 O.3     1  UNL1       -0.3164
     30 C          62.5113   85.8735   12.2991 C.3     1  UNL1        0.3334
     31 C          62.7836   84.8882   13.3968 C.3     1  UNL1        0.2815
     32 O          63.6423   82.5611   14.1695 O.3     1  UNL1       -0.4443
     33 C          61.2519   81.5502   14.2884 C.3     1  UNL1        0.1212
     34 C          62.7404   81.3770   14.3553 C.2     1  UNL1        0.3177
     35 O          63.3269   80.0198   14.6081 O.2     1  UNL1       -0.2501
     36 O          64.2704   81.8480   11.3241 O.3     1  UNL1       -0.4458
     37 C          63.3712   80.7077   10.9482 C.2     1  UNL1        0.3176
     38 C          63.0816   80.4257    9.5037 C.3     1  UNL1        0.1212
     39 O          62.7617   79.8495   12.0168 O.2     1  UNL1       -0.2501
     40 O          62.4696   85.2448   14.8195 O.3     1  UNL1       -0.4416
     41 C          63.5621   85.7149   15.7336 C.2     1  UNL1        0.3178
     42 C          63.2289   86.1987   17.1138 C.3     1  UNL1        0.1212
     43 O          64.9877   85.7013   15.2675 O.2     1  UNL1       -0.2501
@<TRIPOS>BOND
     1    33    34    1
     2    34    35    2
     3    34    32    1
     4    25    32    1
     5    25    26    1
     6    26    36    1
     7    36    37    1
     8    37    38    1
     9    37    39    2
    10    26    27    1
    11    27    28    1
    12    27    29    1
    13    29    30    1
    14    30    24    1
    15    24     1    1
    16     1     2   ar
    17     2    16    1
    18    16    17   ar
    19    17    18   ar
    20    18    19   ar
    21    19    20    1
    22    19    21   ar
    23    21    22   ar
    24     2     3   ar
    25     3     4   ar
    26     4     5   ar
    27     5     6   ar
    28     6     7    1
    29     6     8   ar
    30     8     9   ar
    31     9    10    1
    32     9    11   ar
    33    11    12   ar
    34    12    13    2
    35    30    31    1
    36    31    40    1
    37    40    41    1
    38    41    42    1
    39    41    43    2
    40    31    25    1
    41    12     1   ar
    42    22    16   ar
    43    11     4   ar
    44    20    23    1
    45     7    14    1
    46    10    15    1
@<TRIPOS>MOLECULE
*****
 43 46 0 0 0
SMALL
GASTEIGER

@<TRIPOS>ATOM
      1 C          62.3586   87.9705   11.9769 C.ar    1  UNL1        0.2144
      2 C          62.3501   86.4842   11.7748 C.ar    1  UNL1        0.1822
      3 O          61.6073   85.8891   10.6155 O.2     1  UNL1       -0.4500
      4 C          60.8728   86.7804    9.6582 C.ar    1  UNL1        0.1545
      5 C          60.1300   86.1853    8.4989 C.ar    1  UNL1        0.0744
      6 C          59.3956   87.0765    7.5417 C.ar    1  UNL1        0.1397
      7 O          58.6527   86.4815    6.3823 O.3     1  UNL1       -0.5053
      8 C          59.4041   88.5629    7.7437 C.ar    1  UNL1        0.0735
      9 C          60.1470   89.1579    8.9030 C.ar    1  UNL1        0.1428
     10 O          60.1555   90.6442    9.1051 O.3     1  UNL1       -0.5052
     11 C          60.8814   88.2667    9.8603 C.ar    1  UNL1        0.1104
     12 C          61.6243   88.8617   11.0196 C.ar    1  UNL1        0.2382
     13 O          61.6328   90.3480   11.2217 O.2     1  UNL1       -0.2830
     14 H          58.6473   85.5531    6.2561 H       1  UNL1        0.2922
     15 H          59.6968   91.2010    8.5071 H       1  UNL1        0.2922
     16 C          63.0845   85.5929   12.7321 C.ar    1  UNL1        0.0379
     17 C          63.8590   86.1903   13.8693 C.ar    1  UNL1        0.0062
     18 C          64.5934   85.2990   14.8265 C.ar    1  UNL1        0.0367
     19 C          64.5533   83.8104   14.6466 C.ar    1  UNL1        0.1337
     20 O          65.2877   82.9191   15.6039 O.3     1  UNL1       -0.5055
     21 C          63.7787   83.2130   13.5094 C.ar    1  UNL1        0.0367
     22 C          63.0444   84.1043   12.5522 C.ar    1  UNL1        0.0062
     23 H          65.7715   83.2923   16.3143 H       1  UNL1        0.2922
     24 O          63.1016   88.5655   13.1362 O.3     1  UNL1       -0.4433
     25 C          65.4137   91.6924   13.9276 C.3     1  UNL1        0.2569
     26 C          65.3452   92.4326   12.6248 C.3     1  UNL1        0.2392
     27 C          64.5288   91.8837   11.4923 C.3     1  UNL1        0.1627
     28 C          64.4603   92.6239   10.1895 C.3     1  UNL1        0.0362
     29 O          63.7809   90.5947   11.6628 O.3     1  UNL1       -0.3164
     30 C          63.8495   89.8545   12.9658 C.3     1  UNL1        0.3334
     31 C          64.6658   90.4034   14.0981 C.3     1  UNL1        0.2815
     32 O          66.2301   92.2413   15.0600 O.3     1  UNL1       -0.4443
     33 C          68.5038   92.1881   16.3159 C.3     1  UNL1        0.1212
     34 C          67.7247   92.1174   15.0360 C.2     1  UNL1        0.3177
     35 O          68.4403   91.9227   13.7321 O.2     1  UNL1       -0.2501
     36 O          66.0931   93.7216   12.4543 O.3     1  UNL1       -0.4458
     37 C          66.9123   93.9558   11.2197 C.2     1  UNL1        0.3176
     38 C          66.8132   95.2630   10.4907 C.3     1  UNL1        0.1212
     39 O          67.8304   92.8828   10.7141 O.2     1  UNL1       -0.2501
     40 O          64.7343   89.6632   15.4009 O.3     1  UNL1       -0.4416
     41 C          63.6019   89.7616   16.3798 C.2     1  UNL1        0.3178
     42 C          62.9609   88.5146   16.9129 C.3     1  UNL1        0.1212
     43 O          63.1107   91.1069   16.8257 O.2     1  UNL1       -0.2501
@<TRIPOS>BOND
     1    33    34    1
     2    34    35    2
     3    34    32    1
     4    25    32    1
     5    25    26    1
     6    26    36    1
     7    36    37    1
     8    37    38    1
     9    37    39    2
    10    26    27    1
    11    27    28    1
    12    27    29    1
    13    29    30    1
    14    30    24    1
    15    24     1    1
    16     1     2   ar
    17     2    16    1
    18    16    17   ar
    19    17    18   ar
    20    18    19   ar
    21    19    20    1
    22    19    21   ar
    23    21    22   ar
    24     2     3   ar
    25     3     4   ar
    26     4     5   ar
    27     5     6   ar
    28     6     7    1
    29     6     8   ar
    30     8     9   ar
    31     9    10    1
    32     9    11   ar
    33    11    12   ar
    34    12    13    2
    35    30    31    1
    36    31    40    1
    37    40    41    1
    38    41    42    1
    39    41    43    2
    40    31    25    1
    41    12     1   ar
    42    22    16   ar
    43    11     4   ar
    44    20    23    1
    45     7    14    1
    46    10    15    1
@<TRIPOS>MOLECULE
*****
 43 46 0 0 0
SMALL
GASTEIGER

@<TRIPOS>ATOM
      1 C          63.5637   89.5926   13.3957 C.ar    1  UNL1        0.2144
      2 C          64.3396   89.0232   14.5463 C.ar    1  UNL1        0.1822
      3 O          65.5739   89.7202   15.0366 O.2     1  UNL1       -0.4500
      4 C          66.0325   90.9867   14.3764 C.ar    1  UNL1        0.1545
      5 C          67.2669   91.6837   14.8668 C.ar    1  UNL1        0.0744
      6 C          67.7254   92.9501   14.2065 C.ar    1  UNL1        0.1397
      7 O          68.9598   93.6472   14.6969 O.3     1  UNL1       -0.5053
      8 C          66.9495   93.5195   13.0559 C.ar    1  UNL1        0.0735
      9 C          65.7152   92.8225   12.5656 C.ar    1  UNL1        0.1428
     10 O          64.9394   93.3919   11.4149 O.3     1  UNL1       -0.5052
     11 C          65.2567   91.5561   13.2258 C.ar    1  UNL1        0.1104
     12 C          64.0223   90.8590   12.7354 C.ar    1  UNL1        0.2382
     13 O          63.2464   91.4284   11.5848 O.2     1  UNL1       -0.2830
     14 H          69.4444   93.2915   15.4156 H       1  UNL1        0.2922
     15 H          65.2258   94.1830   11.0025 H       1  UNL1        0.2922
     16 C          63.8810   87.7568   15.2065 C.ar    1  UNL1        0.0379
     17 C          64.5447   86.4538   14.8721 C.ar    1  UNL1        0.0062
     18 C          64.0861   85.1875   15.5324 C.ar    1  UNL1        0.0367
     19 C          62.9638   85.2240   16.5270 C.ar    1  UNL1        0.1337
     20 O          62.5052   83.9576   17.1872 O.3     1  UNL1       -0.5055
     21 C          62.3001   86.5270   16.8613 C.ar    1  UNL1        0.0367
     22 C          62.7587   87.7933   16.2011 C.ar    1  UNL1        0.0062
     23 H          62.9198   83.1436   16.9783 H       1  UNL1        0.2922
     24 O          62.3293   88.8955   12.9053 O.3     1  UNL1       -0.4433
     25 C          62.5123   86.3561    9.8610 C.3     1  UNL1        0.2569
     26 C          62.6849   85.0550   10.5871 C.3     1  UNL1        0.2392
     27 C          62.7390   85.0340   12.0860 C.3     1  UNL1        0.1627
     28 C          62.9116   83.7329   12.8121 C.3     1  UNL1        0.0362
     29 O          62.6205   86.3142   12.8587 O.3     1  UNL1       -0.3164
     30 C          62.4479   87.6154   12.1326 C.3     1  UNL1        0.3334
     31 C          62.3938   87.6363   10.6337 C.3     1  UNL1        0.2815
     32 O          62.4582   86.3771    8.3621 O.3     1  UNL1       -0.4443
     33 C          61.6018   84.7360    6.5391 C.3     1  UNL1        0.1212
     34 C          61.3220   85.7120    7.6433 C.2     1  UNL1        0.3177
     35 O          59.9061   86.0229    8.0285 O.2     1  UNL1       -0.2501
     36 O          62.8034   83.7749    9.8143 O.3     1  UNL1       -0.4458
     37 C          63.7406   82.7008   10.2815 C.2     1  UNL1        0.3176
     38 C          63.2549   81.2881   10.4162 C.3     1  UNL1        0.1212
     39 O          65.1635   83.0396   10.6140 O.2     1  UNL1       -0.2501
     40 O          62.2211   88.9374    9.9076 O.3     1  UNL1       -0.4416
     41 C          60.8444   89.4551    9.6131 C.2     1  UNL1        0.3178
     42 C          60.0937   90.2263   10.6578 C.3     1  UNL1        0.1212
     43 O          60.2184   89.2014    8.2737 O.2     1  UNL1       -0.2501
@<TRIPOS>BOND
     1    33    34    1
     2    34    35    2
     3    34    32    1
     4    25    32    1
     5    25    26    1
     6    26    36    1
     7    36    37    1
     8    37    38    1
     9    37    39    2
    10    26    27    1
    11    27    28    1
    12    27    29    1
    13    29    30    1
    14    30    24    1
    15    24     1    1
    16     1     2   ar
    17     2    16    1
    18    16    17   ar
    19    17    18   ar
    20    18    19   ar
    21    19    20    1
    22    19    21   ar
    23    21    22   ar
    24     2     3   ar
    25     3     4   ar
    26     4     5   ar
    27     5     6   ar
    28     6     7    1
    29     6     8   ar
    30     8     9   ar
    31     9    10    1
    32     9    11   ar
    33    11    12   ar
    34    12    13    2
    35    30    31    1
    36    31    40    1
    37    40    41    1
    38    41    42    1
    39    41    43    2
    40    31    25    1
    41    12     1   ar
    42    22    16   ar
    43    11     4   ar
    44    20    23    1
    45     7    14    1
    46    10    15    1
@<TRIPOS>MOLECULE
*****
 43 46 0 0 0
SMALL
GASTEIGER

@<TRIPOS>ATOM
      1 C          62.4259   87.2672   12.1750 C.ar    1  UNL1        0.2144
      2 C          61.9399   86.7486   10.8541 C.ar    1  UNL1        0.1822
      3 O          62.1880   85.3194   10.4723 O.2     1  UNL1       -0.4500
      4 C          62.9222   84.4088   11.4114 C.ar    1  UNL1        0.1545
      5 C          63.1704   82.9796   11.0295 C.ar    1  UNL1        0.0744
      6 C          63.9046   82.0691   11.9686 C.ar    1  UNL1        0.1397
      7 O          64.1528   80.6399   11.5868 O.3     1  UNL1       -0.5053
      8 C          64.3906   82.5878   13.2895 C.ar    1  UNL1        0.0735
      9 C          64.1425   84.0170   13.6713 C.ar    1  UNL1        0.1428
     10 O          64.6286   84.5356   14.9922 O.3     1  UNL1       -0.5052
     11 C          63.4083   84.9275   12.7323 C.ar    1  UNL1        0.1104
     12 C          63.1601   86.3567   13.1141 C.ar    1  UNL1        0.2382
     13 O          63.6462   86.8754   14.4350 O.2     1  UNL1       -0.2830
     14 H          63.8491   80.3159   10.7617 H       1  UNL1        0.2922
     15 H          65.0872   83.9668   15.5788 H       1  UNL1        0.2922
     16 C          61.2056   87.6592    9.9151 C.ar    1  UNL1        0.0379
     17 C          60.5047   87.0929    8.7159 C.ar    1  UNL1        0.0062
     18 C          59.7705   88.0035    7.7770 C.ar    1  UNL1        0.0367
     19 C          59.7373   89.4804    8.0371 C.ar    1  UNL1        0.1337
     20 O          59.0030   90.3910    7.0980 O.3     1  UNL1       -0.5055
     21 C          60.4382   90.0467    9.2362 C.ar    1  UNL1        0.0367
     22 C          61.1724   89.1361   10.1752 C.ar    1  UNL1        0.0062
     23 H          58.5651   90.0372    6.3489 H       1  UNL1        0.2922
     24 O          62.1777   88.6965   12.5568 O.3     1  UNL1       -0.4433
     25 C          65.3834   90.7820   13.6173 C.3     1  UNL1        0.2569
     26 C          65.5459   91.6778   12.4253 C.3     1  UNL1        0.2392
     27 C          64.5856   91.5799   11.2770 C.3     1  UNL1        0.1627
     28 C          64.7482   92.4758   10.0849 C.3     1  UNL1        0.0362
     29 O          63.4629   90.5862   11.3208 O.3     1  UNL1       -0.3164
     30 C          63.3004   89.6903   12.5130 C.3     1  UNL1        0.3334
     31 C          64.2606   89.7882   13.6612 C.3     1  UNL1        0.2815
     32 O          66.3435   90.8800   14.7655 O.3     1  UNL1       -0.4443
     33 C          67.8283   92.5564   16.0827 C.3     1  UNL1        0.1212
     34 C          66.4968   92.1750   15.5067 C.2     1  UNL1        0.3177
     35 O          65.3187   93.0886   15.6718 O.2     1  UNL1       -0.2501
     36 O          66.6686   92.6716   12.3814 O.3     1  UNL1       -0.4458
     37 C          68.0197   92.2552   11.8802 C.2     1  UNL1        0.3176
     38 C          68.3101   92.2671   10.4086 C.3     1  UNL1        0.1212
     39 O          69.0803   91.8268   12.8505 O.2     1  UNL1       -0.2501
     40 O          64.0981   88.8924   14.8532 O.3     1  UNL1       -0.4416
     41 C          63.4294   89.4077   16.0931 C.2     1  UNL1        0.3178
     42 C          63.0228   88.4544   17.1774 C.3     1  UNL1        0.1212
     43 O          63.1673   90.8765   16.2486 O.2     1  UNL1       -0.2501
@<TRIPOS>BOND
     1    33    34    1
     2    34    35    2
     3    34    32    1
     4    25    32    1
     5    25    26    1
     6    26    36    1
     7    36    37    1
     8    37    38    1
     9    37    39    2
    10    26    27    1
    11    27    28    1
    12    27    29    1
    13    29    30    1
    14    30    24    1
    15    24     1    1
    16     1     2   ar
    17     2    16    1
    18    16    17   ar
    19    17    18   ar
    20    18    19   ar
    21    19    20    1
    22    19    21   ar
    23    21    22   ar
    24     2     3   ar
    25     3     4   ar
    26     4     5   ar
    27     5     6   ar
    28     6     7    1
    29     6     8   ar
    30     8     9   ar
    31     9    10    1
    32     9    11   ar
    33    11    12   ar
    34    12    13    2
    35    30    31    1
    36    31    40    1
    37    40    41    1
    38    41    42    1
    39    41    43    2
    40    31    25    1
    41    12     1   ar
    42    22    16   ar
    43    11     4   ar
    44    20    23    1
    45     7    14    1
    46    10    15    1
@<TRIPOS>MOLECULE
*****
 43 46 0 0 0
SMALL
GASTEIGER

@<TRIPOS>ATOM
      1 C          62.2059   87.7610   11.3851 C.ar    1  UNL1        0.2144
      2 C          62.4557   89.2315   11.2269 C.ar    1  UNL1        0.1822
      3 O          61.8135   89.9844   10.0996 O.2     1  UNL1       -0.4500
      4 C          60.9215   89.2666    9.1304 C.ar    1  UNL1        0.1545
      5 C          60.2793   90.0194    8.0032 C.ar    1  UNL1        0.0744
      6 C          59.3873   89.3016    7.0341 C.ar    1  UNL1        0.1397
      7 O          58.7451   90.0545    5.9067 O.3     1  UNL1       -0.5053
      8 C          59.1375   87.8311    7.1923 C.ar    1  UNL1        0.0735
      9 C          59.7797   87.0783    8.3196 C.ar    1  UNL1        0.1428
     10 O          59.5300   85.6077    8.4778 O.3     1  UNL1       -0.5052
     11 C          60.6717   87.7960    9.2886 C.ar    1  UNL1        0.1104
     12 C          61.3140   87.0432   10.4160 C.ar    1  UNL1        0.2382
     13 O          61.0642   85.5726   10.5742 O.2     1  UNL1       -0.2830
     14 H          58.9011   90.9731    5.8079 H       1  UNL1        0.2922
     15 H          58.9728   85.1593    7.8724 H       1  UNL1        0.2922
     16 C          63.3477   89.9493   12.1960 C.ar    1  UNL1        0.0379
     17 C          63.9834   91.2512   11.8076 C.ar    1  UNL1        0.0062
     18 C          64.8753   91.9689   12.7767 C.ar    1  UNL1        0.0367
     19 C          65.1317   91.3847   14.1343 C.ar    1  UNL1        0.1337
     20 O          66.0237   92.1024   15.1034 O.3     1  UNL1       -0.5055
     21 C          64.4961   90.0827   14.5227 C.ar    1  UNL1        0.0367
     22 C          63.6041   89.3651   13.5536 C.ar    1  UNL1        0.0062
     23 H          66.4208   92.9157   14.8608 H       1  UNL1        0.2922
     24 O          62.8482   87.0082   12.5124 O.3     1  UNL1       -0.4433
     25 C          63.3413   83.1666   13.3779 C.3     1  UNL1        0.2569
     26 C          63.7862   82.6315   12.0492 C.3     1  UNL1        0.2392
     27 C          63.9184   83.5552   10.8747 C.3     1  UNL1        0.1627
     28 C          64.3632   83.0201    9.5460 C.3     1  UNL1        0.0362
     29 O          63.6057   85.0141   11.0291 O.3     1  UNL1       -0.3164
     30 C          63.1609   85.5493   12.3580 C.3     1  UNL1        0.3334
     31 C          63.0287   84.6255   13.5324 C.3     1  UNL1        0.2815
     32 O          63.2092   82.2428   14.5523 O.3     1  UNL1       -0.4443
     33 C          60.8961   81.1417   14.1193 C.3     1  UNL1        0.1212
     34 C          62.3542   81.0148   14.4480 C.2     1  UNL1        0.3177
     35 O          62.9572   79.6598   14.6725 O.2     1  UNL1       -0.2501
     36 O          64.0988   81.1725   11.8948 O.3     1  UNL1       -0.4458
     37 C          63.1174   80.2628   11.2170 C.2     1  UNL1        0.3176
     38 C          62.7887   80.4612    9.7669 C.3     1  UNL1        0.1212
     39 O          62.4648   79.1549   11.9892 O.2     1  UNL1       -0.2501
     40 O          62.5838   85.1606   14.8611 O.3     1  UNL1       -0.4416
     41 C          63.5702   85.8396   15.7646 C.2     1  UNL1        0.3178
     42 C          63.1276   86.3660   17.0976 C.3     1  UNL1        0.1212
     43 O          64.9993   85.9922   15.3349 O.2     1  UNL1       -0.2501
@<TRIPOS>BOND
     1    33    34    1
     2    34    35    2
     3    34    32    1
     4    25    32    1
     5    25    26    1
     6    26    36    1
     7    36    37    1
     8    37    38    1
     9    37    39    2
    10    26    27    1
    11    27    28    1
    12    27    29    1
    13    29    30    1
    14    30    24    1
    15    24     1    1
    16     1     2   ar
    17     2    16    1
    18    16    17   ar
    19    17    18   ar
    20    18    19   ar
    21    19    20    1
    22    19    21   ar
    23    21    22   ar
    24     2     3   ar
    25     3     4   ar
    26     4     5   ar
    27     5     6   ar
    28     6     7    1
    29     6     8   ar
    30     8     9   ar
    31     9    10    1
    32     9    11   ar
    33    11    12   ar
    34    12    13    2
    35    30    31    1
    36    31    40    1
    37    40    41    1
    38    41    42    1
    39    41    43    2
    40    31    25    1
    41    12     1   ar
    42    22    16   ar
    43    11     4   ar
    44    20    23    1
    45     7    14    1
    46    10    15    1
@<TRIPOS>MOLECULE
*****
 43 46 0 0 0
SMALL
GASTEIGER

@<TRIPOS>ATOM
      1 C          62.9956   89.2815   12.6314 C.ar    1  UNL1        0.2144
      2 C          63.7867   89.5048   13.8861 C.ar    1  UNL1        0.1822
      3 O          64.7611   90.6423   13.9660 O.2     1  UNL1       -0.4500
      4 C          64.9446   91.5566   12.7910 C.ar    1  UNL1        0.1545
      5 C          65.9190   92.6941   12.8709 C.ar    1  UNL1        0.0744
      6 C          66.1025   93.6084   11.6960 C.ar    1  UNL1        0.1397
      7 O          67.0770   94.7460   11.7758 O.3     1  UNL1       -0.5053
      8 C          65.3114   93.3852   10.4412 C.ar    1  UNL1        0.0735
      9 C          64.3369   92.2476   10.3614 C.ar    1  UNL1        0.1428
     10 O          63.5459   92.0244    9.1066 O.3     1  UNL1       -0.5052
     11 C          64.1535   91.3334   11.5363 C.ar    1  UNL1        0.1104
     12 C          63.1790   90.1958   11.4565 C.ar    1  UNL1        0.2382
     13 O          62.3880   89.9725   10.2017 O.2     1  UNL1       -0.2830
     14 H          67.5711   94.8855   12.5596 H       1  UNL1        0.2922
     15 H          63.6605   92.5955    8.3727 H       1  UNL1        0.2922
     16 C          63.6032   88.5904   15.0611 C.ar    1  UNL1        0.0379
     17 C          62.7567   89.0215   16.2219 C.ar    1  UNL1        0.0062
     18 C          62.5733   88.1072   17.3967 C.ar    1  UNL1        0.0367
     19 C          63.2364   86.7618   17.4108 C.ar    1  UNL1        0.1337
     20 O          63.0529   85.8474   18.5857 O.3     1  UNL1       -0.5055
     21 C          64.0829   86.3307   16.2499 C.ar    1  UNL1        0.0367
     22 C          64.2663   87.2450   15.0751 C.ar    1  UNL1        0.0062
     23 H          62.5241   86.1167   19.3108 H       1  UNL1        0.2922
     24 O          62.0211   88.1439   12.5516 O.3     1  UNL1       -0.4433
     25 C          62.7804   84.8528   10.4679 C.3     1  UNL1        0.2569
     26 C          63.4660   84.0128   11.5044 C.3     1  UNL1        0.2392
     27 C          63.6700   84.5499   12.8901 C.3     1  UNL1        0.1627
     28 C          64.3555   83.7100   13.9266 C.3     1  UNL1        0.0362
     29 O          63.1883   85.9270   13.2391 O.3     1  UNL1       -0.3164
     30 C          62.5027   86.7669   12.2025 C.3     1  UNL1        0.3334
     31 C          62.2988   86.2298   10.8169 C.3     1  UNL1        0.2815
     32 O          62.5764   84.3157    9.0823 O.3     1  UNL1       -0.4443
     33 C          62.3170   84.9014    6.5644 C.3     1  UNL1        0.1212
     34 C          62.9719   85.1395    7.8928 C.2     1  UNL1        0.3177
     35 O          64.0220   86.2015    8.0317 O.2     1  UNL1       -0.2501
     36 O          63.9476   82.6358   11.1554 O.3     1  UNL1       -0.4458
     37 C          63.0411   81.4550   11.3399 C.2     1  UNL1        0.3176
     38 C          63.0153   80.3617   10.3133 C.3     1  UNL1        0.1212
     39 O          62.1604   81.3676   12.5509 O.2     1  UNL1       -0.2501
     40 O          61.6132   87.0697    9.7804 O.3     1  UNL1       -0.4416
     41 C          60.1292   87.2790    9.8461 C.2     1  UNL1        0.3178
     42 C          59.2581   86.8348    8.7086 C.3     1  UNL1        0.1212
     43 O          59.5165   87.9324   11.0492 O.2     1  UNL1       -0.2501
@<TRIPOS>BOND
     1    33    34    1
     2    34    35    2
     3    34    32    1
     4    25    32    1
     5    25    26    1
     6    26    36    1
     7    36    37    1
     8    37    38    1
     9    37    39    2
    10    26    27    1
    11    27    28    1
    12    27    29    1
    13    29    30    1
    14    30    24    1
    15    24     1    1
    16     1     2   ar
    17     2    16    1
    18    16    17   ar
    19    17    18   ar
    20    18    19   ar
    21    19    20    1
    22    19    21   ar
    23    21    22   ar
    24     2     3   ar
    25     3     4   ar
    26     4     5   ar
    27     5     6   ar
    28     6     7    1
    29     6     8   ar
    30     8     9   ar
    31     9    10    1
    32     9    11   ar
    33    11    12   ar
    34    12    13    2
    35    30    31    1
    36    31    40    1
    37    40    41    1
    38    41    42    1
    39    41    43    2
    40    31    25    1
    41    12     1   ar
    42    22    16   ar
    43    11     4   ar
    44    20    23    1
    45     7    14    1
    46    10    15    1
@<TRIPOS>MOLECULE
*****
 43 46 0 0 0
SMALL
GASTEIGER

@<TRIPOS>ATOM
      1 C          62.2849   87.1038   11.6187 C.ar    1  UNL1        0.2144
      2 C          62.1214   85.6990   11.1189 C.ar    1  UNL1        0.1822
      3 O          61.3070   85.4309    9.8881 O.2     1  UNL1       -0.4500
      4 C          60.6561   86.5676    9.1571 C.ar    1  UNL1        0.1545
      5 C          59.8418   86.2995    7.9263 C.ar    1  UNL1        0.0744
      6 C          59.1909   87.4361    7.1953 C.ar    1  UNL1        0.1397
      7 O          58.3765   87.1680    5.9645 O.3     1  UNL1       -0.5053
      8 C          59.3545   88.8409    7.6951 C.ar    1  UNL1        0.0735
      9 C          60.1688   89.1091    8.9259 C.ar    1  UNL1        0.1428
     10 O          60.3324   90.5139    9.4257 O.3     1  UNL1       -0.5052
     11 C          60.8197   87.9724    9.6569 C.ar    1  UNL1        0.1104
     12 C          61.6341   88.2405   10.8877 C.ar    1  UNL1        0.2382
     13 O          61.7976   89.6453   11.3875 O.2     1  UNL1       -0.2830
     14 H          58.2743   86.2905    5.6522 H       1  UNL1        0.2922
     15 H          59.9258   91.2239    8.9691 H       1  UNL1        0.2922
     16 C          62.7722   84.5623   11.8500 C.ar    1  UNL1        0.0379
     17 C          63.6951   83.6318   11.1204 C.ar    1  UNL1        0.0062
     18 C          64.3459   82.4952   11.8514 C.ar    1  UNL1        0.0367
     19 C          64.0739   82.2891   13.3121 C.ar    1  UNL1        0.1337
     20 O          64.7247   81.1524   14.0431 O.3     1  UNL1       -0.5055
     21 C          63.1510   83.2197   14.0417 C.ar    1  UNL1        0.0367
     22 C          62.5002   84.3563   13.3106 C.ar    1  UNL1        0.0062
     23 H          65.3012   80.5711   13.5874 H       1  UNL1        0.2922
     24 O          63.0993   87.3719   12.8496 O.3     1  UNL1       -0.4433
     25 C          64.7888   90.4805   14.6474 C.3     1  UNL1        0.2569
     26 C          64.9297   91.4317   13.4962 C.3     1  UNL1        0.2392
     27 C          64.4605   91.0296   12.1293 C.3     1  UNL1        0.1627
     28 C          64.6014   91.9808   10.9781 C.3     1  UNL1        0.0362
     29 O          63.8504   89.6764   11.9138 O.3     1  UNL1       -0.3164
     30 C          63.7094   88.7252   13.0651 C.3     1  UNL1        0.3334
     31 C          64.1786   89.1273   14.4319 C.3     1  UNL1        0.2815
     32 O          65.2579   90.8826   16.0142 O.3     1  UNL1       -0.4443
     33 C          65.3455   92.9631   17.5679 C.3     1  UNL1        0.1212
     34 C          64.5548   91.9807   16.7556 C.2     1  UNL1        0.3177
     35 O          63.0610   92.0965   16.6848 O.2     1  UNL1       -0.2501
     36 O          65.5398   92.7850   13.7117 O.3     1  UNL1       -0.4458
     37 C          67.0298   92.9292   13.8075 C.2     1  UNL1        0.3176
     38 C          67.6465   93.5490   15.0264 C.3     1  UNL1        0.1212
     39 O          67.9031   92.4538   12.6845 O.2     1  UNL1       -0.2501
     40 O          64.0377   88.1761   15.5831 O.3     1  UNL1       -0.4416
     41 C          62.8747   88.3021   16.5221 C.2     1  UNL1        0.3178
     42 C          62.8077   87.4463   17.7521 C.3     1  UNL1        0.1212
     43 O          61.7787   89.2839   16.2309 O.2     1  UNL1       -0.2501
@<TRIPOS>BOND
     1    33    34    1
     2    34    35    2
     3    34    32    1
     4    25    32    1
     5    25    26    1
     6    26    36    1
     7    36    37    1
     8    37    38    1
     9    37    39    2
    10    26    27    1
    11    27    28    1
    12    27    29    1
    13    29    30    1
    14    30    24    1
    15    24     1    1
    16     1     2   ar
    17     2    16    1
    18    16    17   ar
    19    17    18   ar
    20    18    19   ar
    21    19    20    1
    22    19    21   ar
    23    21    22   ar
    24     2     3   ar
    25     3     4   ar
    26     4     5   ar
    27     5     6   ar
    28     6     7    1
    29     6     8   ar
    30     8     9   ar
    31     9    10    1
    32     9    11   ar
    33    11    12   ar
    34    12    13    2
    35    30    31    1
    36    31    40    1
    37    40    41    1
    38    41    42    1
    39    41    43    2
    40    31    25    1
    41    12     1   ar
    42    22    16   ar
    43    11     4   ar
    44    20    23    1
    45     7    14    1
    46    10    15    1
@<TRIPOS>MOLECULE
*****
 43 46 0 0 0
SMALL
GASTEIGER

@<TRIPOS>ATOM
      1 C          62.3813   87.7713   11.1619 C.ar    1  UNL1        0.2144
      2 C          61.5740   86.8492   10.2971 C.ar    1  UNL1        0.1822
      3 O          61.5898   85.3720   10.5566 O.2     1  UNL1       -0.4500
      4 C          62.4129   84.8167   11.6810 C.ar    1  UNL1        0.1545
      5 C          62.4287   83.3395   11.9405 C.ar    1  UNL1        0.0744
      6 C          63.2518   82.7843   13.0649 C.ar    1  UNL1        0.1397
      7 O          63.2676   81.3070   13.3245 O.3     1  UNL1       -0.5053
      8 C          64.0592   83.7064   13.9297 C.ar    1  UNL1        0.0735
      9 C          64.0434   85.1837   13.6702 C.ar    1  UNL1        0.1428
     10 O          64.8507   86.1058   14.5350 O.3     1  UNL1       -0.5052
     11 C          63.2203   85.7388   12.5458 C.ar    1  UNL1        0.1104
     12 C          63.2045   87.2162   12.2862 C.ar    1  UNL1        0.2382
     13 O          64.0118   88.1383   13.1510 O.2     1  UNL1       -0.2830
     14 H          62.7633   80.7310   12.7843 H       1  UNL1        0.2922
     15 H          65.3649   85.7590   15.2373 H       1  UNL1        0.2922
     16 C          60.7508   87.4045    9.1726 C.ar    1  UNL1        0.0379
     17 C          60.6872   88.8865    8.9505 C.ar    1  UNL1        0.0062
     18 C          59.8641   89.4417    7.8261 C.ar    1  UNL1        0.0367
     19 C          59.1046   88.5148    6.9239 C.ar    1  UNL1        0.1337
     20 O          58.2814   89.0700    5.7995 O.3     1  UNL1       -0.5055
     21 C          59.1682   87.0327    7.1461 C.ar    1  UNL1        0.0367
     22 C          59.9913   86.4775    8.2705 C.ar    1  UNL1        0.0062
     23 H          58.2417   89.9958    5.6608 H       1  UNL1        0.2922
     24 O          62.3655   89.2487   10.9023 O.3     1  UNL1       -0.4433
     25 C          63.5561   91.4233   14.0012 C.3     1  UNL1        0.2569
     26 C          64.8279   92.0097   13.4642 C.3     1  UNL1        0.2392
     27 C          65.2790   91.6758   12.0731 C.3     1  UNL1        0.1627
     28 C          66.5509   92.2622   11.5360 C.3     1  UNL1        0.0362
     29 O          64.4582   90.7554   11.2191 O.3     1  UNL1       -0.3164
     30 C          63.1863   90.1690   11.7562 C.3     1  UNL1        0.3334
     31 C          62.7353   90.5029   13.1473 C.3     1  UNL1        0.2815
     32 O          63.1050   91.7572   15.3923 O.3     1  UNL1       -0.4443
     33 C          63.3666   89.5588   16.7521 C.3     1  UNL1        0.1212
     34 C          63.6754   91.0147   16.5642 C.2     1  UNL1        0.3177
     35 O          64.5545   91.7280   17.5482 O.2     1  UNL1       -0.2501
     36 O          65.6487   92.9300   14.3182 O.3     1  UNL1       -0.4458
     37 C          66.8567   92.4074   15.0377 C.2     1  UNL1        0.3176
     38 C          67.7222   93.3435   15.8280 C.3     1  UNL1        0.1212
     39 O          67.1990   90.9487   14.9670 O.2     1  UNL1       -0.2501
     40 O          61.4635   89.9165   13.6843 O.3     1  UNL1       -0.4416
     41 C          60.2477   89.8336   12.8096 C.2     1  UNL1        0.3178
     42 C          59.9969   90.8876   11.7722 C.3     1  UNL1        0.1212
     43 O          59.2828   88.6968   12.9723 O.2     1  UNL1       -0.2501
@<TRIPOS>BOND
     1    33    34    1
     2    34    35    2
     3    34    32    1
     4    25    32    1
     5    25    26    1
     6    26    36    1
     7    36    37    1
     8    37    38    1
     9    37    39    2
    10    26    27    1
    11    27    28    1
    12    27    29    1
    13    29    30    1
    14    30    24    1
    15    24     1    1
    16     1     2   ar
    17     2    16    1
    18    16    17   ar
    19    17    18   ar
    20    18    19   ar
    21    19    20    1
    22    19    21   ar
    23    21    22   ar
    24     2     3   ar
    25     3     4   ar
    26     4     5   ar
    27     5     6   ar
    28     6     7    1
    29     6     8   ar
    30     8     9   ar
    31     9    10    1
    32     9    11   ar
    33    11    12   ar
    34    12    13    2
    35    30    31    1
    36    31    40    1
    37    40    41    1
    38    41    42    1
    39    41    43    2
    40    31    25    1
    41    12     1   ar
    42    22    16   ar
    43    11     4   ar
    44    20    23    1
    45     7    14    1
    46    10    15    1
