@<TRIPOS>MOLECULE
*****
 33 36 0 0 0
SMALL
GASTEIGER

@<TRIPOS>ATOM
      1 C          63.5005   90.2059   13.1875 C.3     1  UNL1        0.1532
      2 C          68.5142   94.0358   15.9161 C.3     1  UNL1        0.0897
      3 N          67.4357   93.3832   15.1032 N.3     1  UNL1       -0.2686
      4 C          67.0568   93.9498   13.7670 C.3     1  UNL1        0.0939
      5 C          65.9783   93.2972   12.9541 C.3     1  UNL1        0.1108
      6 N          65.2787   92.0779   13.4773 N.am    1  UNL1       -0.2753
      7 C          64.2001   91.4252   12.6643 C.2     1  UNL1        0.2439
      8 O          63.8213   91.9919   11.3282 O.2     1  UNL1       -0.2731
      9 C          65.6575   91.5112   14.8134 C.3     1  UNL1        0.1108
     10 C          66.7360   92.1639   15.6264 C.3     1  UNL1        0.0939
     11 N          62.0016   90.1478   13.1982 N.am    1  UNL1       -0.2978
     12 C          61.2603   89.6848   11.9792 C.2     1  UNL1        0.2257
     13 O          59.7615   89.6267   11.9898 O.2     1  UNL1       -0.2748
     14 H          61.5044   90.4137   14.0053 H       1  UNL1        0.1498
     15 C          62.0179   89.2797   10.7495 C.3     1  UNL1        0.0884
     16 C          62.7487   89.3894    9.4443 C.3     1  UNL1        0.0135
     17 C          62.2043   90.6212   10.1047 C.3     1  UNL1        0.0135
     18 C          62.0945   87.7976   10.9672 C.ar    1  UNL1       -0.0040
     19 C          63.0624   87.2353   11.9657 C.ar    1  UNL1       -0.0021
     20 C          63.1390   85.7531   12.1834 C.ar    1  UNL1        0.0111
     21 C          62.2479   84.8333   11.4025 C.ar    1  UNL1        0.0585
     22 CL         62.3246   83.3511   11.6202 Cl      1  UNL1       -0.0822
     23 C          61.2800   85.3956   10.4040 C.ar    1  UNL1        0.0225
     24 C          61.2034   86.8777   10.1863 C.ar    1  UNL1        0.0550
     25 CL         60.2355   87.4400    9.1878 Cl      1  UNL1       -0.0825
     26 C          64.2997   89.0446   13.7001 C.3     1  UNL1        0.0553
     27 C          63.9080   88.3724   14.9825 C.ar    1  UNL1       -0.0200
     28 C          63.3299   89.1800   16.1065 C.ar    1  UNL1       -0.0033
     29 C          62.9382   88.5077   17.3890 C.ar    1  UNL1        0.0111
     30 C          63.1247   87.0278   17.5474 C.ar    1  UNL1        0.0577
     31 CL         62.7330   86.3555   18.8298 Cl      1  UNL1       -0.0822
     32 C          63.7029   86.2202   16.4233 C.ar    1  UNL1        0.0111
     33 C          64.0945   86.8924   15.1409 C.ar    1  UNL1       -0.0033
@<TRIPOS>BOND
     1     2     3    1
     2     3     4    1
     3     4     5    1
     4     5     6    1
     5     6     7   am
     6     7     8    2
     7     7     1    1
     8     1    26    1
     9    26    27    1
    10    27    28   ar
    11    28    29   ar
    12    29    30   ar
    13    30    31    1
    14    30    32   ar
    15    32    33   ar
    16     1    11    1
    17    11    12   am
    18    12    13    2
    19    12    15    1
    20    15    18    1
    21    18    19   ar
    22    19    20   ar
    23    20    21   ar
    24    21    22    1
    25    21    23   ar
    26    23    24   ar
    27    24    25    1
    28    15    16    1
    29    16    17    1
    30     6     9    1
    31     9    10    1
    32    10     3    1
    33    33    27   ar
    34    17    15    1
    35    24    18   ar
    36    11    14    1
@<TRIPOS>MOLECULE
*****
 33 36 0 0 0
SMALL
GASTEIGER

@<TRIPOS>ATOM
      1 C          62.3748   89.3267   13.4699 C.3     1  UNL1        0.1532
      2 C          67.3585   93.9693   14.3963 C.3     1  UNL1        0.0897
      3 N          66.2515   92.9604   14.4782 N.3     1  UNL1       -0.2686
      4 C          65.7004   92.5584   15.8141 C.3     1  UNL1        0.0939
      5 C          64.5934   91.5495   15.8960 C.3     1  UNL1        0.1108
      6 N          64.0376   90.9426   14.6420 N.am    1  UNL1       -0.2753
      7 C          62.9306   89.9336   14.7239 C.2     1  UNL1        0.2439
      8 O          62.3795   89.5317   16.0598 O.2     1  UNL1       -0.2731
      9 C          64.5887   91.3445   13.3061 C.3     1  UNL1        0.1108
     10 C          65.6957   92.3534   13.2242 C.3     1  UNL1        0.0939
     11 N          60.9856   89.6718   13.0214 N.am    1  UNL1       -0.2978
     12 C          60.7252   90.0172   11.5852 C.2     1  UNL1        0.2257
     13 O          59.3360   90.3624   11.1367 O.2     1  UNL1       -0.2748
     14 H          60.2447   89.6717   13.6698 H       1  UNL1        0.1498
     15 C          61.8540   90.0175   10.5973 C.3     1  UNL1        0.0884
     16 C          63.1118   90.4342    9.8945 C.3     1  UNL1        0.0135
     17 C          62.6179   91.2168   11.0749 C.3     1  UNL1        0.0135
     18 C          61.4821   88.8183    9.7766 C.ar    1  UNL1       -0.0040
     19 C          62.1605   87.5028   10.0205 C.ar    1  UNL1       -0.0021
     20 C          61.7886   86.3036    9.1998 C.ar    1  UNL1        0.0111
     21 C          60.7385   86.4198    8.1351 C.ar    1  UNL1        0.0585
     22 CL         60.3666   85.2205    7.3143 Cl      1  UNL1       -0.0822
     23 C          60.0601   87.7352    7.8911 C.ar    1  UNL1        0.0225
     24 C          60.4319   88.9344    8.7119 C.ar    1  UNL1        0.0550
     25 CL         59.7535   90.2498    8.4679 Cl      1  UNL1       -0.0825
     26 C          63.2081   88.3745   12.6643 C.3     1  UNL1        0.0553
     27 C          63.5592   87.0275   13.2231 C.ar    1  UNL1       -0.0200
     28 C          64.4092   86.9249   14.4547 C.ar    1  UNL1       -0.0033
     29 C          64.7604   85.5779   15.0135 C.ar    1  UNL1        0.0111
     30 C          64.2616   84.3335   14.3407 C.ar    1  UNL1        0.0577
     31 CL         64.6128   82.9866   14.8995 Cl      1  UNL1       -0.0822
     32 C          63.4116   84.4362   13.1090 C.ar    1  UNL1        0.0111
     33 C          63.0604   85.7832   12.5502 C.ar    1  UNL1       -0.0033
@<TRIPOS>BOND
     1     2     3    1
     2     3     4    1
     3     4     5    1
     4     5     6    1
     5     6     7   am
     6     7     8    2
     7     7     1    1
     8     1    26    1
     9    26    27    1
    10    27    28   ar
    11    28    29   ar
    12    29    30   ar
    13    30    31    1
    14    30    32   ar
    15    32    33   ar
    16     1    11    1
    17    11    12   am
    18    12    13    2
    19    12    15    1
    20    15    18    1
    21    18    19   ar
    22    19    20   ar
    23    20    21   ar
    24    21    22    1
    25    21    23   ar
    26    23    24   ar
    27    24    25    1
    28    15    16    1
    29    16    17    1
    30     6     9    1
    31     9    10    1
    32    10     3    1
    33    33    27   ar
    34    17    15    1
    35    24    18   ar
    36    11    14    1
@<TRIPOS>MOLECULE
*****
 33 36 0 0 0
SMALL
GASTEIGER

@<TRIPOS>ATOM
      1 C          62.6034   85.2434   12.2820 C.3     1  UNL1        0.1532
      2 C          62.2808   78.4406   13.2139 C.3     1  UNL1        0.0897
      3 N          62.4756   79.8580   12.7634 N.3     1  UNL1       -0.2686
      4 C          63.1273   80.1424   11.4426 C.3     1  UNL1        0.0939
      5 C          63.3221   81.5598   10.9921 C.3     1  UNL1        0.1108
      6 N          62.8653   82.6929   11.8623 N.am    1  UNL1       -0.2753
      7 C          63.0602   84.1103   11.4118 C.2     1  UNL1        0.2439
      8 O          63.7118   84.3946   10.0910 O.2     1  UNL1       -0.2731
      9 C          62.2137   82.4086   13.1831 C.3     1  UNL1        0.1108
     10 C          62.0188   80.9912   13.6336 C.3     1  UNL1        0.0939
     11 N          61.9166   84.9588   13.5849 N.am    1  UNL1       -0.2978
     12 C          62.6674   85.1024   14.8755 C.2     1  UNL1        0.2257
     13 O          61.9806   84.8178   16.1784 O.2     1  UNL1       -0.2748
     14 H          60.9731   84.6777   13.5929 H       1  UNL1        0.1498
     15 C          64.1049   85.5306   14.8633 C.3     1  UNL1        0.0884
     16 C          65.5976   85.4533   14.7380 C.3     1  UNL1        0.0135
     17 C          64.7632   84.2238   14.5333 C.3     1  UNL1        0.0135
     18 C          63.9459   86.9861   15.1891 C.ar    1  UNL1       -0.0040
     19 C          64.2946   88.0261   14.1659 C.ar    1  UNL1       -0.0021
     20 C          64.1356   89.4816   14.4918 C.ar    1  UNL1        0.0111
     21 C          63.6280   89.8972   15.8407 C.ar    1  UNL1        0.0585
     22 CL         63.4690   91.3528   16.1665 Cl      1  UNL1       -0.0822
     23 C          63.2794   88.8572   16.8639 C.ar    1  UNL1        0.0225
     24 C          63.4383   87.4017   16.5381 C.ar    1  UNL1        0.0550
     25 CL         63.0897   86.3617   17.5613 Cl      1  UNL1       -0.0825
     26 C          62.8334   86.6611   11.8495 C.3     1  UNL1        0.0553
     27 C          61.9706   87.2695   10.7839 C.ar    1  UNL1       -0.0200
     28 C          62.0917   88.7299   10.4639 C.ar    1  UNL1       -0.0033
     29 C          61.2290   89.3383    9.3982 C.ar    1  UNL1        0.0111
     30 C          60.2451   88.4862    8.6526 C.ar    1  UNL1        0.0577
     31 CL         59.3824   89.0945    7.5869 Cl      1  UNL1       -0.0822
     32 C          60.1241   87.0257    8.9726 C.ar    1  UNL1        0.0111
     33 C          60.9868   86.4173   10.0382 C.ar    1  UNL1       -0.0033
@<TRIPOS>BOND
     1     2     3    1
     2     3     4    1
     3     4     5    1
     4     5     6    1
     5     6     7   am
     6     7     8    2
     7     7     1    1
     8     1    26    1
     9    26    27    1
    10    27    28   ar
    11    28    29   ar
    12    29    30   ar
    13    30    31    1
    14    30    32   ar
    15    32    33   ar
    16     1    11    1
    17    11    12   am
    18    12    13    2
    19    12    15    1
    20    15    18    1
    21    18    19   ar
    22    19    20   ar
    23    20    21   ar
    24    21    22    1
    25    21    23   ar
    26    23    24   ar
    27    24    25    1
    28    15    16    1
    29    16    17    1
    30     6     9    1
    31     9    10    1
    32    10     3    1
    33    33    27   ar
    34    17    15    1
    35    24    18   ar
    36    11    14    1
@<TRIPOS>MOLECULE
*****
 33 36 0 0 0
SMALL
GASTEIGER

@<TRIPOS>ATOM
      1 C          62.8454   85.6641   12.3152 C.3     1  UNL1        0.1532
      2 C          58.9663   87.9542    7.1230 C.3     1  UNL1        0.0897
      3 N          59.8823   87.7286    8.2892 N.3     1  UNL1       -0.2686
      4 C          60.5832   88.8906    8.9282 C.3     1  UNL1        0.0939
      5 C          61.4991   88.6650   10.0945 C.3     1  UNL1        0.1108
      6 N          61.7143   87.2774   10.6217 N.am    1  UNL1       -0.2753
      7 C          62.6302   87.0518   11.7879 C.2     1  UNL1        0.2439
      8 O          63.3311   88.2138   12.4269 O.2     1  UNL1       -0.2731
      9 C          61.0134   86.1153    9.9827 C.3     1  UNL1        0.1108
     10 C          60.0974   86.3409    8.8165 C.3     1  UNL1        0.0939
     11 N          62.0481   85.1754   13.4881 N.am    1  UNL1       -0.2978
     12 C          62.6877   85.0773   14.8412 C.2     1  UNL1        0.2257
     13 O          61.8904   84.5886   16.0141 O.2     1  UNL1       -0.2748
     14 H          61.1049   84.9190   13.3697 H       1  UNL1        0.1498
     15 C          64.1247   85.4680   15.0216 C.3     1  UNL1        0.0884
     16 C          65.6199   85.3586   15.0680 C.3     1  UNL1        0.0135
     17 C          64.7917   84.1639   14.6983 C.3     1  UNL1        0.0135
     18 C          63.9568   86.9077   15.4076 C.ar    1  UNL1       -0.0040
     19 C          64.4583   87.9910   14.4993 C.ar    1  UNL1       -0.0021
     20 C          64.2904   89.4308   14.8853 C.ar    1  UNL1        0.0111
     21 C          63.6211   89.7872   16.1794 C.ar    1  UNL1        0.0585
     22 CL         63.4532   91.2270   16.5654 Cl      1  UNL1       -0.0822
     23 C          63.1196   88.7039   17.0877 C.ar    1  UNL1        0.0225
     24 C          63.2874   87.2642   16.7017 C.ar    1  UNL1        0.0550
     25 CL         62.7859   86.1808   17.6100 Cl      1  UNL1       -0.0825
     26 C          63.8577   84.7650   11.6696 C.3     1  UNL1        0.0553
     27 C          63.5454   83.3131   11.4591 C.ar    1  UNL1       -0.0200
     28 C          62.7748   82.5536   12.4979 C.ar    1  UNL1       -0.0033
     29 C          62.4624   81.1016   12.2875 C.ar    1  UNL1        0.0111
     30 C          62.9207   80.4092   11.0382 C.ar    1  UNL1        0.0577
     31 CL         62.6083   78.9573   10.8277 Cl      1  UNL1       -0.0822
     32 C          63.6914   81.1689    9.9994 C.ar    1  UNL1        0.0111
     33 C          64.0037   82.6208   10.2099 C.ar    1  UNL1       -0.0033
@<TRIPOS>BOND
     1     2     3    1
     2     3     4    1
     3     4     5    1
     4     5     6    1
     5     6     7   am
     6     7     8    2
     7     7     1    1
     8     1    26    1
     9    26    27    1
    10    27    28   ar
    11    28    29   ar
    12    29    30   ar
    13    30    31    1
    14    30    32   ar
    15    32    33   ar
    16     1    11    1
    17    11    12   am
    18    12    13    2
    19    12    15    1
    20    15    18    1
    21    18    19   ar
    22    19    20   ar
    23    20    21   ar
    24    21    22    1
    25    21    23   ar
    26    23    24   ar
    27    24    25    1
    28    15    16    1
    29    16    17    1
    30     6     9    1
    31     9    10    1
    32    10     3    1
    33    33    27   ar
    34    17    15    1
    35    24    18   ar
    36    11    14    1
@<TRIPOS>MOLECULE
*****
 33 36 0 0 0
SMALL
GASTEIGER

@<TRIPOS>ATOM
      1 C          62.4113   87.3708   11.5424 C.3     1  UNL1        0.1532
      2 C          63.0307   80.6074   12.6019 C.3     1  UNL1        0.0897
      3 N          63.0715   82.1068   12.5934 N.3     1  UNL1       -0.2686
      4 C          63.8947   82.8405   13.6102 C.3     1  UNL1        0.0939
      5 C          63.9355   84.3399   13.6016 C.3     1  UNL1        0.1108
      6 N          63.1530   85.1057   12.5763 N.am    1  UNL1       -0.2753
      7 C          63.1937   86.6051   12.5678 C.2     1  UNL1        0.2439
      8 O          64.0170   87.3388   13.5846 O.2     1  UNL1       -0.2731
      9 C          62.3298   84.3720   11.5595 C.3     1  UNL1        0.1108
     10 C          62.2890   82.8725   11.5680 C.3     1  UNL1        0.0939
     11 N          61.1087   88.0126   11.9186 N.am    1  UNL1       -0.2978
     12 C          60.8680   89.4599   11.6065 C.2     1  UNL1        0.2257
     13 O          59.5654   90.1017   11.9827 O.2     1  UNL1       -0.2748
     14 H          60.4117   87.4839   12.3703 H       1  UNL1        0.1498
     15 C          61.9298   90.2654   10.9183 C.3     1  UNL1        0.0884
     16 C          62.6860   90.9580    9.8236 C.3     1  UNL1        0.0135
     17 C          61.4187   90.2200    9.5088 C.3     1  UNL1        0.0135
     18 C          62.8097   90.5906   12.0887 C.ar    1  UNL1       -0.0040
     19 C          62.4500   90.0948   13.4580 C.ar    1  UNL1       -0.0021
     20 C          63.3299   90.4200   14.6285 C.ar    1  UNL1        0.0111
     21 C          64.5695   91.2409   14.4297 C.ar    1  UNL1        0.0585
     22 CL         65.4494   91.5661   15.6003 Cl      1  UNL1       -0.0822
     23 C          64.9292   91.7367   13.0605 C.ar    1  UNL1        0.0225
     24 C          64.0493   91.4115   11.8901 C.ar    1  UNL1        0.0550
     25 CL         64.4090   91.9073   10.5208 Cl      1  UNL1       -0.0825
     26 C          62.9313   87.4948   10.1409 C.3     1  UNL1        0.0553
     27 C          62.3913   86.6068    9.0593 C.ar    1  UNL1       -0.0200
     28 C          63.2992   85.6378    8.3616 C.ar    1  UNL1       -0.0033
     29 C          62.7593   84.7498    7.2799 C.ar    1  UNL1        0.0111
     30 C          61.3115   84.8308    6.8961 C.ar    1  UNL1        0.0577
     31 CL         60.7715   83.9428    5.8145 Cl      1  UNL1       -0.0822
     32 C          60.4036   85.7998    7.5939 C.ar    1  UNL1        0.0111
     33 C          60.9436   86.6878    8.6755 C.ar    1  UNL1       -0.0033
@<TRIPOS>BOND
     1     2     3    1
     2     3     4    1
     3     4     5    1
     4     5     6    1
     5     6     7   am
     6     7     8    2
     7     7     1    1
     8     1    26    1
     9    26    27    1
    10    27    28   ar
    11    28    29   ar
    12    29    30   ar
    13    30    31    1
    14    30    32   ar
    15    32    33   ar
    16     1    11    1
    17    11    12   am
    18    12    13    2
    19    12    15    1
    20    15    18    1
    21    18    19   ar
    22    19    20   ar
    23    20    21   ar
    24    21    22    1
    25    21    23   ar
    26    23    24   ar
    27    24    25    1
    28    15    16    1
    29    16    17    1
    30     6     9    1
    31     9    10    1
    32    10     3    1
    33    33    27   ar
    34    17    15    1
    35    24    18   ar
    36    11    14    1
@<TRIPOS>MOLECULE
*****
 33 36 0 0 0
SMALL
GASTEIGER

@<TRIPOS>ATOM
      1 C          63.2943   84.3156   13.6075 C.3     1  UNL1        0.1532
      2 C          62.7478   78.2766   10.3700 C.3     1  UNL1        0.0897
      3 N          62.7608   79.4535   11.2999 N.3     1  UNL1       -0.2686
      4 C          62.2792   79.2989   12.7121 C.3     1  UNL1        0.0939
      5 C          62.2922   80.4758   13.6420 C.3     1  UNL1        0.1108
      6 N          62.7868   81.8073   13.1598 N.am    1  UNL1       -0.2753
      7 C          62.7998   82.9841   14.0897 C.2     1  UNL1        0.2439
      8 O          62.3182   82.8296   15.5018 O.2     1  UNL1       -0.2731
      9 C          63.2683   81.9618   11.7477 C.3     1  UNL1        0.1108
     10 C          63.2554   80.7849   10.8177 C.3     1  UNL1        0.0939
     11 N          64.7198   84.7174   13.8458 N.am    1  UNL1       -0.2978
     12 C          65.0438   85.7549   14.8794 C.2     1  UNL1        0.2257
     13 O          66.4693   86.1567   15.1177 O.2     1  UNL1       -0.2748
     14 H          65.4427   84.3001   13.3237 H       1  UNL1        0.1498
     15 C          63.9425   86.3907   15.6748 C.3     1  UNL1        0.0884
     16 C          62.8852   86.5732   16.7230 C.3     1  UNL1        0.0135
     17 C          63.6868   85.3062   16.6790 C.3     1  UNL1        0.0135
     18 C          63.8156   87.6961   14.9470 C.ar    1  UNL1       -0.0040
     19 C          63.9700   87.7413   13.4556 C.ar    1  UNL1       -0.0021
     20 C          63.8431   89.0468   12.7277 C.ar    1  UNL1        0.0111
     21 C          63.5619   90.3069   13.4912 C.ar    1  UNL1        0.0585
     22 CL         63.4350   91.6124   12.7632 Cl      1  UNL1       -0.0822
     23 C          63.4076   90.2618   14.9825 C.ar    1  UNL1        0.0225
     24 C          63.5344   88.9564   15.7104 C.ar    1  UNL1        0.0550
     25 CL         63.3801   88.9111   17.2017 Cl      1  UNL1       -0.0825
     26 C          62.3635   85.2454   12.8870 C.3     1  UNL1        0.0553
     27 C          62.3292   85.2590   11.3875 C.ar    1  UNL1       -0.0200
     28 C          61.2700   86.0409   10.6687 C.ar    1  UNL1       -0.0033
     29 C          61.2356   86.0546    9.1691 C.ar    1  UNL1        0.0111
     30 C          62.2605   85.2864    8.3884 C.ar    1  UNL1        0.0577
     31 CL         62.2262   85.3001    6.8889 Cl      1  UNL1       -0.0822
     32 C          63.3198   84.5045    9.1073 C.ar    1  UNL1        0.0111
     33 C          63.3541   84.4909   10.6068 C.ar    1  UNL1       -0.0033
@<TRIPOS>BOND
     1     2     3    1
     2     3     4    1
     3     4     5    1
     4     5     6    1
     5     6     7   am
     6     7     8    2
     7     7     1    1
     8     1    26    1
     9    26    27    1
    10    27    28   ar
    11    28    29   ar
    12    29    30   ar
    13    30    31    1
    14    30    32   ar
    15    32    33   ar
    16     1    11    1
    17    11    12   am
    18    12    13    2
    19    12    15    1
    20    15    18    1
    21    18    19   ar
    22    19    20   ar
    23    20    21   ar
    24    21    22    1
    25    21    23   ar
    26    23    24   ar
    27    24    25    1
    28    15    16    1
    29    16    17    1
    30     6     9    1
    31     9    10    1
    32    10     3    1
    33    33    27   ar
    34    17    15    1
    35    24    18   ar
    36    11    14    1
@<TRIPOS>MOLECULE
*****
 33 36 0 0 0
SMALL
GASTEIGER

@<TRIPOS>ATOM
      1 C          62.8496   94.0502   -1.7021 C.3     1  UNL1        0.1532
      2 C          66.2049   95.3405   -7.5610 C.3     1  UNL1        0.0897
      3 N          65.4332   95.3408   -6.2747 N.3     1  UNL1       -0.2686
      4 C          64.9301   96.6328   -5.7022 C.3     1  UNL1        0.0939
      5 C          64.1584   96.6331   -4.4160 C.3     1  UNL1        0.1108
      6 N          63.8898   95.3415   -3.7022 N.am    1  UNL1       -0.2753
      7 C          63.1181   95.3418   -2.4159 C.2     1  UNL1        0.2439
      8 O          62.6150   96.6337   -1.8434 O.2     1  UNL1       -0.2731
      9 C          64.3929   94.0495   -4.2746 C.3     1  UNL1        0.1108
     10 C          65.1646   94.0492   -5.5609 C.3     1  UNL1        0.0939
     11 N          63.9898   93.2478   -1.1487 N.am    1  UNL1       -0.2978
     12 C          64.6014   93.6233    0.1684 C.2     1  UNL1        0.2257
     13 O          65.7417   92.8210    0.7218 O.2     1  UNL1       -0.2748
     14 H          64.3368   92.4748   -1.6500 H       1  UNL1        0.1498
     15 C          64.0728   94.8011    0.9323 C.3     1  UNL1        0.0884
     16 C          63.9526   96.1999    1.4601 C.3     1  UNL1        0.0135
     17 C          65.0651   95.8469    0.5180 C.3     1  UNL1        0.0135
     18 C          62.8969   94.1643    1.6118 C.ar    1  UNL1       -0.0040
     19 C          63.0511   92.8341    2.2878 C.ar    1  UNL1       -0.0021
     20 C          61.8752   92.1974    2.9673 C.ar    1  UNL1        0.0111
     21 C          60.5452   92.8908    2.9710 C.ar    1  UNL1        0.0585
     22 CL         59.3692   92.2540    3.6506 Cl      1  UNL1       -0.0822
     23 C          60.3909   94.2209    2.2951 C.ar    1  UNL1        0.0225
     24 C          61.5668   94.8577    1.6155 C.ar    1  UNL1        0.0550
     25 CL         61.4126   96.1879    0.9396 Cl      1  UNL1       -0.0825
     26 C          61.4407   93.5608   -1.5416 C.3     1  UNL1        0.0553
     27 C          60.3394   94.1634   -2.3625 C.ar    1  UNL1       -0.0200
     28 C          59.3357   95.0730   -1.7184 C.ar    1  UNL1       -0.0033
     29 C          58.2342   95.6757   -2.5392 C.ar    1  UNL1        0.0111
     30 C          58.1366   95.3686   -4.0042 C.ar    1  UNL1        0.0577
     31 CL         57.0352   95.9711   -4.8250 Cl      1  UNL1       -0.0822
     32 C          59.1404   94.4588   -4.6483 C.ar    1  UNL1        0.0111
     33 C          60.2417   93.8562   -3.8274 C.ar    1  UNL1       -0.0033
@<TRIPOS>BOND
     1     2     3    1
     2     3     4    1
     3     4     5    1
     4     5     6    1
     5     6     7   am
     6     7     8    2
     7     7     1    1
     8     1    26    1
     9    26    27    1
    10    27    28   ar
    11    28    29   ar
    12    29    30   ar
    13    30    31    1
    14    30    32   ar
    15    32    33   ar
    16     1    11    1
    17    11    12   am
    18    12    13    2
    19    12    15    1
    20    15    18    1
    21    18    19   ar
    22    19    20   ar
    23    20    21   ar
    24    21    22    1
    25    21    23   ar
    26    23    24   ar
    27    24    25    1
    28    15    16    1
    29    16    17    1
    30     6     9    1
    31     9    10    1
    32    10     3    1
    33    33    27   ar
    34    17    15    1
    35    24    18   ar
    36    11    14    1
@<TRIPOS>MOLECULE
*****
 33 36 0 0 0
SMALL
GASTEIGER

@<TRIPOS>ATOM
      1 C          63.0311   85.5412   13.1805 C.3     1  UNL1        0.1532
      2 C          64.2139   92.2473   12.2427 C.3     1  UNL1        0.0897
      3 N          64.1024   90.8195   12.6889 N.3     1  UNL1       -0.2686
      4 C          64.7277   90.3868   13.9818 C.3     1  UNL1        0.0939
      5 C          64.6162   88.9590   14.4279 C.3     1  UNL1        0.1108
      6 N          63.8794   87.9640   13.5811 N.am    1  UNL1       -0.2753
      7 C          63.7679   86.5362   14.0273 C.2     1  UNL1        0.2439
      8 O          64.3931   86.1035   15.3202 O.2     1  UNL1       -0.2731
      9 C          63.2541   88.3968   12.2882 C.3     1  UNL1        0.1108
     10 C          63.3656   89.8245   11.8421 C.3     1  UNL1        0.0939
     11 N          61.9324   84.7142   13.7797 N.am    1  UNL1       -0.2978
     12 C          62.2097   83.3096   14.2270 C.2     1  UNL1        0.2257
     13 O          61.1111   82.4825   14.8262 O.2     1  UNL1       -0.2748
     14 H          61.0293   85.0933   13.8794 H       1  UNL1        0.1498
     15 C          63.5857   82.7319   14.0751 C.3     1  UNL1        0.0884
     16 C          65.0342   82.4511   14.3451 C.3     1  UNL1        0.0135
     17 C          64.2725   83.3860   15.2372 C.3     1  UNL1        0.0135
     18 C          63.3768   81.8773   12.8603 C.ar    1  UNL1       -0.0040
     19 C          63.6924   82.4202   11.4980 C.ar    1  UNL1       -0.0021
     20 C          63.4835   81.5656   10.2832 C.ar    1  UNL1        0.0111
     21 C          62.9590   80.1680   10.4305 C.ar    1  UNL1        0.0585
     22 CL         62.7501   79.3133    9.2156 Cl      1  UNL1       -0.0822
     23 C          62.6435   79.6250   11.7927 C.ar    1  UNL1        0.0225
     24 C          62.8524   80.4797   13.0075 C.ar    1  UNL1        0.0550
     25 CL         62.5368   79.9367   14.3698 Cl      1  UNL1       -0.0825
     26 C          63.3929   85.3732   11.7345 C.3     1  UNL1        0.0553
     27 C          62.4107   85.7538   10.6666 C.ar    1  UNL1       -0.0200
     28 C          61.1594   86.4972   11.0289 C.ar    1  UNL1       -0.0033
     29 C          60.1772   86.8778    9.9610 C.ar    1  UNL1        0.0111
     30 C          60.4464   86.5149    8.5306 C.ar    1  UNL1        0.0577
     31 CL         59.4643   86.8955    7.4627 Cl      1  UNL1       -0.0822
     32 C          61.6979   85.7715    8.1683 C.ar    1  UNL1        0.0111
     33 C          62.6800   85.3909    9.2363 C.ar    1  UNL1       -0.0033
@<TRIPOS>BOND
     1     2     3    1
     2     3     4    1
     3     4     5    1
     4     5     6    1
     5     6     7   am
     6     7     8    2
     7     7     1    1
     8     1    26    1
     9    26    27    1
    10    27    28   ar
    11    28    29   ar
    12    29    30   ar
    13    30    31    1
    14    30    32   ar
    15    32    33   ar
    16     1    11    1
    17    11    12   am
    18    12    13    2
    19    12    15    1
    20    15    18    1
    21    18    19   ar
    22    19    20   ar
    23    20    21   ar
    24    21    22    1
    25    21    23   ar
    26    23    24   ar
    27    24    25    1
    28    15    16    1
    29    16    17    1
    30     6     9    1
    31     9    10    1
    32    10     3    1
    33    33    27   ar
    34    17    15    1
    35    24    18   ar
    36    11    14    1
@<TRIPOS>MOLECULE
*****
 33 36 0 0 0
SMALL
GASTEIGER

@<TRIPOS>ATOM
      1 C          62.5175   85.8528   12.4117 C.3     1  UNL1        0.1532
      2 C          59.4969   89.5203    7.4443 C.3     1  UNL1        0.0897
      3 N          60.0966   88.4966    8.3621 N.3     1  UNL1       -0.2686
      4 C          60.0744   87.0453    7.9836 C.3     1  UNL1        0.0939
      5 C          60.6740   86.0216    8.9014 C.3     1  UNL1        0.1108
      6 N          61.2959   86.4491   10.1977 N.am    1  UNL1       -0.2753
      7 C          61.8956   85.4253   11.1154 C.2     1  UNL1        0.2439
      8 O          61.8734   83.9741   10.7369 O.2     1  UNL1       -0.2731
      9 C          61.3181   87.9003   10.5762 C.3     1  UNL1        0.1108
     10 C          60.7185   88.9241    9.6584 C.3     1  UNL1        0.0939
     11 N          61.9891   85.3176   13.7096 N.am    1  UNL1       -0.2978
     12 C          62.8017   84.3380   14.5033 C.2     1  UNL1        0.2257
     13 O          62.2733   83.8028   15.8012 O.2     1  UNL1       -0.2748
     14 H          61.1089   85.6093   14.0405 H       1  UNL1        0.1498
     15 C          64.1427   83.8935   13.9992 C.3     1  UNL1        0.0884
     16 C          65.6248   83.8682   13.7703 C.3     1  UNL1        0.0135
     17 C          65.0150   84.9461   14.6166 C.3     1  UNL1        0.0135
     18 C          63.7361   82.6866   13.2067 C.ar    1  UNL1       -0.0040
     19 C          62.9199   81.6059   13.8517 C.ar    1  UNL1       -0.0021
     20 C          62.5133   80.3990   13.0592 C.ar    1  UNL1        0.0111
     21 C          62.9230   80.2728   11.6218 C.ar    1  UNL1        0.0585
     22 CL         62.5164   79.0657   10.8293 Cl      1  UNL1       -0.0822
     23 C          63.7392   81.3533   10.9768 C.ar    1  UNL1        0.0225
     24 C          64.1457   82.5603   11.7693 C.ar    1  UNL1        0.0550
     25 CL         64.9620   83.6409   11.1243 Cl      1  UNL1       -0.0825
     26 C          63.6678   86.8155   12.4103 C.3     1  UNL1        0.0553
     27 C          63.6853   87.9647   13.3741 C.ar    1  UNL1       -0.0200
     28 C          63.9034   87.7135   14.8367 C.ar    1  UNL1       -0.0033
     29 C          63.9209   88.8627   15.8007 C.ar    1  UNL1        0.0111
     30 C          63.7202   90.2631   15.3019 C.ar    1  UNL1        0.0577
     31 CL         63.7377   91.4122   16.2658 Cl      1  UNL1       -0.0822
     32 C          63.5021   90.5142   13.8392 C.ar    1  UNL1        0.0111
     33 C          63.4846   89.3651   12.8754 C.ar    1  UNL1       -0.0033
@<TRIPOS>BOND
     1     2     3    1
     2     3     4    1
     3     4     5    1
     4     5     6    1
     5     6     7   am
     6     7     8    2
     7     7     1    1
     8     1    26    1
     9    26    27    1
    10    27    28   ar
    11    28    29   ar
    12    29    30   ar
    13    30    31    1
    14    30    32   ar
    15    32    33   ar
    16     1    11    1
    17    11    12   am
    18    12    13    2
    19    12    15    1
    20    15    18    1
    21    18    19   ar
    22    19    20   ar
    23    20    21   ar
    24    21    22    1
    25    21    23   ar
    26    23    24   ar
    27    24    25    1
    28    15    16    1
    29    16    17    1
    30     6     9    1
    31     9    10    1
    32    10     3    1
    33    33    27   ar
    34    17    15    1
    35    24    18   ar
    36    11    14    1
