@<TRIPOS>MOLECULE
*****
 31 33 0 0 0
SMALL
GASTEIGER

@<TRIPOS>ATOM
      1 N          63.2065   86.6887   16.2966 N.am    1  UNL1       -0.2845
      2 C          63.8234   87.7185   15.3972 C.2     1  UNL1        0.3047
      3 O          65.0340   87.3734   14.5815 O.2     1  UNL1       -0.2525
      4 N          63.2297   89.0935   15.3136 N.am    1  UNL1       -0.2683
      5 H          62.4120   86.9152   16.8320 H       1  UNL1        0.1513
      6 H          62.4352   89.3200   15.8490 H       1  UNL1        0.1564
      7 C          63.8466   90.1234   14.4143 C.ar    1  UNL1        0.0516
      8 C          64.9610   90.9904   14.9206 C.ar    1  UNL1        0.0160
      9 C          65.5779   92.0202   14.0212 C.ar    1  UNL1        0.0200
     10 C          65.0805   92.1830   12.6155 C.ar    1  UNL1        0.1104
     11 C          63.9660   91.3160   12.1092 C.ar    1  UNL1        0.0200
     12 C          63.3491   90.2862   13.0085 C.ar    1  UNL1        0.0160
     13 S          65.6974   93.2129   11.7162 S.O2    1  UNL1        0.0274
     14 O          66.3361   93.8682   12.9047 O.2     1  UNL1       -0.1642
     15 O          65.0586   92.5576   10.5277 O.2     1  UNL1       -0.1642
     16 C          66.3143   94.2427   10.8168 C.ar    1  UNL1        0.1103
     17 C          66.1578   95.7015   11.1290 C.ar    1  UNL1        0.0187
     18 C          66.7747   96.7313   10.2296 C.ar    1  UNL1        0.0013
     19 C          67.5481   96.3024    9.0181 C.ar    1  UNL1        0.0001
     20 C          67.7046   94.8436    8.7058 C.ar    1  UNL1        0.0013
     21 C          67.0876   93.8137    9.6052 C.ar    1  UNL1        0.0187
     22 C          63.8002   85.3137   16.3802 C.3     1  UNL1        0.1192
     23 N          62.8626   81.3672   11.9592 N.pl3   1  UNL1       -0.3426
     24 C          63.0970   82.3538   13.0644 C.ar    1  UNL1        0.1254
     25 C          64.3464   83.1838   13.0765 C.ar    1  UNL1        0.0336
     26 C          64.5807   84.1704   14.1817 C.ar    1  UNL1        0.0018
     27 C          63.5658   84.3271   15.2750 C.ar    1  UNL1        0.0167
     28 C          62.3164   83.4971   15.2629 C.ar    1  UNL1        0.0976
     29 N          62.0820   82.5105   14.1577 N.ar    1  UNL1       -0.2299
     30 H          63.5288   81.2643   11.2416 H       1  UNL1        0.1437
     31 H          62.0426   80.8224   11.9513 H       1  UNL1        0.1437
@<TRIPOS>BOND
     1    23    24    1
     2    24    25   ar
     3    25    26   ar
     4    26    27   ar
     5    27    22    1
     6    22     1    1
     7     1     2   am
     8     2     3    2
     9     2     4   am
    10     4     7    1
    11     7     8   ar
    12     8     9   ar
    13     9    10   ar
    14    10    13    1
    15    13    14    2
    16    13    15    2
    17    13    16    1
    18    16    17   ar
    19    17    18   ar
    20    18    19   ar
    21    19    20   ar
    22    20    21   ar
    23    10    11   ar
    24    11    12   ar
    25    27    28   ar
    26    28    29   ar
    27    29    24   ar
    28    12     7   ar
    29    21    16   ar
    30    23    30    1
    31    23    31    1
    32     1     5    1
    33     4     6    1
@<TRIPOS>MOLECULE
*****
 31 33 0 0 0
SMALL
GASTEIGER

@<TRIPOS>ATOM
      1 N          58.5257   89.8434    5.7294 N.am    1  UNL1       -0.2845
      2 C          59.3218   89.2759    6.8670 C.2     1  UNL1        0.3047
      3 O          60.2517   90.1587    7.6455 O.2     1  UNL1       -0.2525
      4 N          59.1882   87.8256    7.2261 N.am    1  UNL1       -0.2683
      5 H          57.9154   89.2640    5.2185 H       1  UNL1        0.1513
      6 H          58.5779   87.2462    6.7151 H       1  UNL1        0.1564
      7 C          59.9843   87.2582    8.3636 C.ar    1  UNL1        0.0516
      8 C          60.9712   86.1568    8.1125 C.ar    1  UNL1        0.0160
      9 C          61.7674   85.5894    9.2501 C.ar    1  UNL1        0.0200
     10 C          61.5767   86.1233   10.6388 C.ar    1  UNL1        0.1104
     11 C          60.5898   87.2247   10.8900 C.ar    1  UNL1        0.0200
     12 C          59.7936   87.7922    9.7524 C.ar    1  UNL1        0.0160
     13 S          62.3729   85.5558   11.7764 S.O2    1  UNL1        0.0274
     14 O          62.1149   84.1693   11.2654 O.2     1  UNL1       -0.1642
     15 O          62.6309   86.9423   12.2874 O.2     1  UNL1       -0.1642
     16 C          63.1690   84.9884   12.9140 C.ar    1  UNL1        0.1103
     17 C          63.9484   85.9017   13.8131 C.ar    1  UNL1        0.0187
     18 C          64.7446   85.3342   14.9506 C.ar    1  UNL1        0.0013
     19 C          64.7614   83.8534   15.1892 C.ar    1  UNL1        0.0001
     20 C          63.9820   82.9400   14.2901 C.ar    1  UNL1        0.0013
     21 C          63.1858   83.5075   13.1525 C.ar    1  UNL1        0.0187
     22 C          58.6593   91.2936    5.3704 C.3     1  UNL1        0.1192
     23 N          62.9564   93.0607    1.5740 N.pl3   1  UNL1       -0.3426
     24 C          61.8821   92.6189    2.5231 C.ar    1  UNL1        0.1254
     25 C          60.4769   93.1133    2.3479 C.ar    1  UNL1        0.0336
     26 C          59.4026   92.6715    3.2970 C.ar    1  UNL1        0.0018
     27 C          59.7336   91.7354    4.4213 C.ar    1  UNL1        0.0167
     28 C          61.1389   91.2410    4.5965 C.ar    1  UNL1        0.0976
     29 N          62.2131   91.6828    3.6474 N.ar    1  UNL1       -0.2299
     30 H          62.7391   93.6751    0.8361 H       1  UNL1        0.1437
     31 H          63.8788   92.7362    1.6890 H       1  UNL1        0.1437
@<TRIPOS>BOND
     1    23    24    1
     2    24    25   ar
     3    25    26   ar
     4    26    27   ar
     5    27    22    1
     6    22     1    1
     7     1     2   am
     8     2     3    2
     9     2     4   am
    10     4     7    1
    11     7     8   ar
    12     8     9   ar
    13     9    10   ar
    14    10    13    1
    15    13    14    2
    16    13    15    2
    17    13    16    1
    18    16    17   ar
    19    17    18   ar
    20    18    19   ar
    21    19    20   ar
    22    20    21   ar
    23    10    11   ar
    24    11    12   ar
    25    27    28   ar
    26    28    29   ar
    27    29    24   ar
    28    12     7   ar
    29    21    16   ar
    30    23    30    1
    31    23    31    1
    32     1     5    1
    33     4     6    1
@<TRIPOS>MOLECULE
*****
 31 33 0 0 0
SMALL
GASTEIGER

@<TRIPOS>ATOM
      1 N          58.5076   91.4689    4.8497 N.am    1  UNL1       -0.2845
      2 C          59.3038   90.5791    5.7576 C.2     1  UNL1        0.3047
      3 O          60.7203   90.9329    6.1012 O.2     1  UNL1       -0.2525
      4 N          58.6833   89.3354    6.3219 N.am    1  UNL1       -0.2683
      5 H          57.5778   91.2367    4.6242 H       1  UNL1        0.1513
      6 H          57.7535   89.1032    6.0964 H       1  UNL1        0.1564
      7 C          59.4795   88.4456    7.2298 C.ar    1  UNL1        0.0516
      8 C          59.5847   86.9780    6.9383 C.ar    1  UNL1        0.0160
      9 C          60.3809   86.0882    7.8463 C.ar    1  UNL1        0.0200
     10 C          61.0719   86.6660    9.0457 C.ar    1  UNL1        0.1104
     11 C          60.9667   88.1337    9.3373 C.ar    1  UNL1        0.0200
     12 C          60.1705   89.0235    8.4293 C.ar    1  UNL1        0.0160
     13 S          61.8681   85.7762    9.9536 S.O2    1  UNL1        0.0274
     14 O          62.7048   85.3365    8.7889 O.2     1  UNL1       -0.1642
     15 O          61.0314   86.2159   11.1183 O.2     1  UNL1       -0.1642
     16 C          62.6643   84.8864   10.8615 C.ar    1  UNL1        0.1103
     17 C          62.5652   85.0513   12.3491 C.ar    1  UNL1        0.0187
     18 C          63.3614   84.1615   13.2570 C.ar    1  UNL1        0.0013
     19 C          64.2567   83.1068   12.6774 C.ar    1  UNL1        0.0001
     20 C          64.3558   82.9418   11.1897 C.ar    1  UNL1        0.0013
     21 C          63.5596   83.8316   10.2818 C.ar    1  UNL1        0.0187
     22 C          59.1279   92.7125    4.2853 C.3     1  UNL1        0.1192
     23 N          62.0314   92.5018   -0.9612 N.pl3   1  UNL1       -0.3426
     24 C          61.3055   92.5545    0.3505 C.ar    1  UNL1        0.1254
     25 C          62.0618   92.3780    1.6338 C.ar    1  UNL1        0.0336
     26 C          61.3359   92.4307    2.9454 C.ar    1  UNL1        0.0018
     27 C          59.8538   92.6598    2.9737 C.ar    1  UNL1        0.0167
     28 C          59.0976   92.8363    1.6904 C.ar    1  UNL1        0.0976
     29 N          59.8234   92.7836    0.3788 N.ar    1  UNL1       -0.2299
     30 H          63.0041   92.3514   -0.9797 H       1  UNL1        0.1437
     31 H          61.5350   92.6176   -1.8035 H       1  UNL1        0.1437
@<TRIPOS>BOND
     1    23    24    1
     2    24    25   ar
     3    25    26   ar
     4    26    27   ar
     5    27    22    1
     6    22     1    1
     7     1     2   am
     8     2     3    2
     9     2     4   am
    10     4     7    1
    11     7     8   ar
    12     8     9   ar
    13     9    10   ar
    14    10    13    1
    15    13    14    2
    16    13    15    2
    17    13    16    1
    18    16    17   ar
    19    17    18   ar
    20    18    19   ar
    21    19    20   ar
    22    20    21   ar
    23    10    11   ar
    24    11    12   ar
    25    27    28   ar
    26    28    29   ar
    27    29    24   ar
    28    12     7   ar
    29    21    16   ar
    30    23    30    1
    31    23    31    1
    32     1     5    1
    33     4     6    1
@<TRIPOS>MOLECULE
*****
 31 33 0 0 0
SMALL
GASTEIGER

@<TRIPOS>ATOM
      1 N          58.4945   91.4087    4.8660 N.am    1  UNL1       -0.2845
      2 C          59.2894   90.5382    5.7936 C.2     1  UNL1        0.3047
      3 O          60.6915   90.9211    6.1642 O.2     1  UNL1       -0.2525
      4 N          58.6821   89.2847    6.3504 N.am    1  UNL1       -0.2683
      5 H          57.5742   91.1574    4.6227 H       1  UNL1        0.1513
      6 H          57.7618   89.0333    6.1071 H       1  UNL1        0.1564
      7 C          59.4770   88.4141    7.2779 C.ar    1  UNL1        0.0516
      8 C          60.1524   89.0142    8.4752 C.ar    1  UNL1        0.0160
      9 C          60.9473   88.1437    9.4027 C.ar    1  UNL1        0.0200
     10 C          61.0667   86.6730    9.1330 C.ar    1  UNL1        0.1104
     11 C          60.3912   86.0728    7.9357 C.ar    1  UNL1        0.0200
     12 C          59.5964   86.9434    7.0081 C.ar    1  UNL1        0.0160
     13 S          61.8616   85.8025   10.0605 S.O2    1  UNL1        0.0274
     14 O          62.6670   85.3003    8.8990 O.2     1  UNL1       -0.1642
     15 O          61.0562   86.3047   11.2221 O.2     1  UNL1       -0.1642
     16 C          62.6565   84.9319   10.9881 C.ar    1  UNL1        0.1103
     17 C          62.5907   85.1579   12.4694 C.ar    1  UNL1        0.0187
     18 C          63.3856   84.2874   13.3970 C.ar    1  UNL1        0.0013
     19 C          64.2463   83.1908   12.8431 C.ar    1  UNL1        0.0001
     20 C          64.3121   82.9648   11.3616 C.ar    1  UNL1        0.0013
     21 C          63.5173   83.8354   10.4341 C.ar    1  UNL1        0.0187
     22 C          59.1017   92.6621    4.3092 C.3     1  UNL1        0.1192
     23 N          62.0533   92.5028   -0.9122 N.pl3   1  UNL1       -0.3426
     24 C          61.3154   92.5426    0.3931 C.ar    1  UNL1        0.1254
     25 C          59.8366   92.7929    0.4114 C.ar    1  UNL1        0.0336
     26 C          59.0987   92.8328    1.7167 C.ar    1  UNL1        0.0018
     27 C          59.8396   92.6223    3.0038 C.ar    1  UNL1        0.0167
     28 C          61.3184   92.3720    2.9856 C.ar    1  UNL1        0.0976
     29 N          62.0563   92.3322    1.6802 N.ar    1  UNL1       -0.2299
     30 H          61.5670   92.6409   -1.7570 H       1  UNL1        0.1437
     31 H          63.0239   92.3385   -0.9242 H       1  UNL1        0.1437
@<TRIPOS>BOND
     1    23    24    1
     2    24    25   ar
     3    25    26   ar
     4    26    27   ar
     5    27    22    1
     6    22     1    1
     7     1     2   am
     8     2     3    2
     9     2     4   am
    10     4     7    1
    11     7     8   ar
    12     8     9   ar
    13     9    10   ar
    14    10    13    1
    15    13    14    2
    16    13    15    2
    17    13    16    1
    18    16    17   ar
    19    17    18   ar
    20    18    19   ar
    21    19    20   ar
    22    20    21   ar
    23    10    11   ar
    24    11    12   ar
    25    27    28   ar
    26    28    29   ar
    27    29    24   ar
    28    12     7   ar
    29    21    16   ar
    30    23    30    1
    31    23    31    1
    32     1     5    1
    33     4     6    1
@<TRIPOS>MOLECULE
*****
 31 33 0 0 0
SMALL
GASTEIGER

@<TRIPOS>ATOM
      1 N          58.7374   91.5120    5.8409 N.am    1  UNL1       -0.2845
      2 C          59.4250   90.3480    6.4907 C.2     1  UNL1        0.3047
      3 O          60.0886   89.3015    5.6454 O.2     1  UNL1       -0.2525
      4 N          59.4490   90.2304    7.9860 N.am    1  UNL1       -0.2683
      5 H          58.3019   92.1988    6.3957 H       1  UNL1        0.1513
      6 H          59.0134   90.9173    8.5408 H       1  UNL1        0.1564
      7 C          60.1365   89.0664    8.6358 C.ar    1  UNL1        0.0516
      8 C          61.2318   89.3036    9.6329 C.ar    1  UNL1        0.0160
      9 C          61.9193   88.1396   10.2828 C.ar    1  UNL1        0.0200
     10 C          61.5117   86.7384    9.9355 C.ar    1  UNL1        0.1104
     11 C          60.4164   86.5012    8.9384 C.ar    1  UNL1        0.0200
     12 C          59.7289   87.6652    8.2885 C.ar    1  UNL1        0.0160
     13 S          62.1993   85.5744   10.5854 S.O2    1  UNL1        0.0274
     14 O          61.5829   85.9452   11.9017 O.2     1  UNL1       -0.1642
     15 O          62.8157   85.2036    9.2691 O.2     1  UNL1       -0.1642
     16 C          62.8869   84.4104   11.2353 C.ar    1  UNL1        0.1103
     17 C          63.7452   83.4933   10.4155 C.ar    1  UNL1        0.0187
     18 C          64.4328   82.3292   11.0654 C.ar    1  UNL1        0.0013
     19 C          64.2621   82.0824   12.5350 C.ar    1  UNL1        0.0001
     20 C          63.4037   82.9996   13.3548 C.ar    1  UNL1        0.0013
     21 C          62.7161   84.1636   12.7050 C.ar    1  UNL1        0.0187
     22 C          58.7134   91.6295    4.3457 C.3     1  UNL1        0.1192
     23 N          63.6037   93.4802    1.4030 N.pl3   1  UNL1       -0.3426
     24 C          62.3812   93.0175    2.1387 C.ar    1  UNL1        0.1254
     25 C          61.0264   93.5144    1.7290 C.ar    1  UNL1        0.0336
     26 C          59.8039   93.0517    2.4647 C.ar    1  UNL1        0.0018
     27 C          59.9360   92.0922    3.6100 C.ar    1  UNL1        0.0167
     28 C          61.2907   91.5954    4.0197 C.ar    1  UNL1        0.0976
     29 N          62.5133   92.0580    3.2840 N.ar    1  UNL1       -0.2299
     30 H          63.5170   94.1100    0.6513 H       1  UNL1        0.1437
     31 H          64.4929   93.1541    1.6719 H       1  UNL1        0.1437
@<TRIPOS>BOND
     1    23    24    1
     2    24    25   ar
     3    25    26   ar
     4    26    27   ar
     5    27    22    1
     6    22     1    1
     7     1     2   am
     8     2     3    2
     9     2     4   am
    10     4     7    1
    11     7     8   ar
    12     8     9   ar
    13     9    10   ar
    14    10    13    1
    15    13    14    2
    16    13    15    2
    17    13    16    1
    18    16    17   ar
    19    17    18   ar
    20    18    19   ar
    21    19    20   ar
    22    20    21   ar
    23    10    11   ar
    24    11    12   ar
    25    27    28   ar
    26    28    29   ar
    27    29    24   ar
    28    12     7   ar
    29    21    16   ar
    30    23    30    1
    31    23    31    1
    32     1     5    1
    33     4     6    1
@<TRIPOS>MOLECULE
*****
 31 33 0 0 0
SMALL
GASTEIGER

@<TRIPOS>ATOM
      1 N          60.3788   88.5461    8.8854 N.am    1  UNL1       -0.2845
      2 C          61.4846   88.9936    9.7948 C.2     1  UNL1        0.3047
      3 O          62.4180   87.9836   10.3938 O.2     1  UNL1       -0.2525
      4 N          61.6570   90.4510   10.1052 N.am    1  UNL1       -0.2683
      5 H          59.7662   89.2090    8.4923 H       1  UNL1        0.1513
      6 H          61.0444   91.1138    9.7120 H       1  UNL1        0.1564
      7 C          62.7629   90.8984   11.0146 C.ar    1  UNL1        0.0516
      8 C          63.8602   91.7741   10.4865 C.ar    1  UNL1        0.0160
      9 C          64.9660   92.2215   11.3959 C.ar    1  UNL1        0.0200
     10 C          64.9745   91.7932   12.8334 C.ar    1  UNL1        0.1104
     11 C          63.8771   90.9175   13.3616 C.ar    1  UNL1        0.0200
     12 C          62.7713   90.4700   12.4522 C.ar    1  UNL1        0.0160
     13 S          66.0803   92.2406   13.7428 S.O2    1  UNL1        0.0274
     14 O          67.0234   92.2791   12.5770 O.2     1  UNL1       -0.1642
     15 O          65.1371   92.2022   14.9086 O.2     1  UNL1       -0.1642
     16 C          67.1861   92.6881   14.6522 C.ar    1  UNL1        0.1103
     17 C          67.9580   91.6776   15.4478 C.ar    1  UNL1        0.0187
     18 C          69.0638   92.1250   16.3572 C.ar    1  UNL1        0.0013
     19 C          69.3977   93.5829   16.4710 C.ar    1  UNL1        0.0001
     20 C          68.6258   94.5935   15.6754 C.ar    1  UNL1        0.0013
     21 C          67.5199   94.1461   14.7660 C.ar    1  UNL1        0.0187
     22 C          60.2064   87.0888    8.5750 C.3     1  UNL1        0.1192
     23 N          64.3494   83.1313   10.3565 N.pl3   1  UNL1       -0.3426
     24 C          63.3136   84.1207    9.9111 C.ar    1  UNL1        0.1254
     25 C          63.2979   84.6018    8.4905 C.ar    1  UNL1        0.0336
     26 C          62.2622   85.5912    8.0452 C.ar    1  UNL1        0.0018
     27 C          61.2421   86.0994    9.0204 C.ar    1  UNL1        0.0167
     28 C          61.2578   85.6183   10.4410 C.ar    1  UNL1        0.0976
     29 N          62.2936   84.6289   10.8864 N.ar    1  UNL1       -0.2299
     30 H          65.0189   82.7977    9.7164 H       1  UNL1        0.1437
     31 H          64.3597   82.8155   11.2889 H       1  UNL1        0.1437
@<TRIPOS>BOND
     1    23    24    1
     2    24    25   ar
     3    25    26   ar
     4    26    27   ar
     5    27    22    1
     6    22     1    1
     7     1     2   am
     8     2     3    2
     9     2     4   am
    10     4     7    1
    11     7     8   ar
    12     8     9   ar
    13     9    10   ar
    14    10    13    1
    15    13    14    2
    16    13    15    2
    17    13    16    1
    18    16    17   ar
    19    17    18   ar
    20    18    19   ar
    21    19    20   ar
    22    20    21   ar
    23    10    11   ar
    24    11    12   ar
    25    27    28   ar
    26    28    29   ar
    27    29    24   ar
    28    12     7   ar
    29    21    16   ar
    30    23    30    1
    31    23    31    1
    32     1     5    1
    33     4     6    1
