@<TRIPOS>MOLECULE
*****
 65 72 0 0 0
SMALL
GASTEIGER

@<TRIPOS>ATOM
      1 N          65.7047   89.5949   14.4063 N.3     1  UNL1       -0.1862
      2 C          65.9995   88.3735   15.2256 C.3     1  UNL1        0.1775
      3 C          65.1785   87.1316   15.0426 C.2     1  UNL1        0.2452
      4 O          65.4733   85.9101   15.8620 O.2     1  UNL1       -0.2732
      5 N          64.0626   87.1110   14.0404 N.am    1  UNL1       -0.2541
      6 C          63.2416   85.8690   13.8575 C.3     1  UNL1        0.1577
      7 C          62.1258   85.8485   12.8553 C.2     1  UNL1        0.2445
      8 O          61.3048   84.6065   12.6724 O.2     1  UNL1       -0.2731
      9 N          61.8309   87.0699   12.0360 N.am    1  UNL1       -0.2705
     10 C          62.6520   88.3118   12.2189 C.3     1  UNL1        0.1359
     11 C          63.7678   88.3324   13.2212 C.3     1  UNL1        0.1908
     12 N          64.5889   89.5743   13.4041 N.am    1  UNL1       -0.1863
     13 C          64.2940   90.7958   12.5847 C.2     1  UNL1        0.3191
     14 O          63.1782   90.7752   11.5825 O.2     1  UNL1       -0.2512
     15 N          65.1150   92.0377   12.7677 N.am    1  UNL1       -0.2836
     16 H          65.8474   92.0512   13.4255 H       1  UNL1        0.1513
     17 C          66.5257   90.8369   14.5892 C.3     1  UNL1        0.1188
     18 C          67.0299   92.7348   16.2902 C.2     1  UNL1       -0.0034
     19 C          66.0437   91.9273   15.4995 C.2     1  UNL1       -0.0071
     20 C          63.5364   84.6477   14.6768 C.3     1  UNL1        0.0556
     21 C          63.2837   83.2833   14.1069 C.ar    1  UNL1       -0.0198
     22 C          64.1428   82.7654   12.9918 C.ar    1  UNL1       -0.0011
     23 C          63.8901   81.4011   12.4219 C.ar    1  UNL1        0.0363
     24 C          62.7783   80.5547   12.9672 C.ar    1  UNL1        0.1337
     25 O          62.5256   79.1903   12.3974 O.3     1  UNL1       -0.5055
     26 C          61.9191   81.0726   14.0825 C.ar    1  UNL1        0.0363
     27 C          62.1718   82.4369   14.6523 C.ar    1  UNL1       -0.0011
     28 H          63.0623   78.8668   11.7008 H       1  UNL1        0.2922
     29 C          60.7151   87.0493   11.0338 C.3     1  UNL1        0.1217
     30 C          60.3370   88.3055   10.3064 C.ar    1  UNL1        0.0135
     31 C          59.9585   89.5344   11.0788 C.ar    1  UNL1       -0.0012
     32 C          59.5804   90.7906   10.3516 C.ar    1  UNL1       -0.0002
     33 C          59.5808   90.8179    8.8518 C.ar    1  UNL1        0.0015
     34 C          59.9593   89.5891    8.0794 C.ar    1  UNL1        0.0170
     35 C          60.0506   89.3175    6.6070 C.ar    1  UNL1        0.0186
     36 C          60.4851   87.8935    6.4244 C.ar    1  UNL1        0.0759
     37 N          60.6623   87.2850    7.7838 N.ar    1  UNL1       -0.3242
     38 C          61.0896   85.8759    8.0701 C.3     1  UNL1        0.1305
     39 C          60.3374   88.3329    8.8067 C.ar    1  UNL1        0.0575
     40 C          59.7586   90.2980    5.5099 C.ar    1  UNL1        0.0016
     41 C          58.3488   90.7446    5.2588 C.ar    1  UNL1        0.0013
     42 C          58.0569   91.7249    4.1617 C.ar    1  UNL1        0.0147
     43 C          59.1747   92.2587    3.3157 C.ar    1  UNL1        0.0505
     44 C          60.5844   91.8121    3.5668 C.ar    1  UNL1        0.0147
     45 C          60.8764   90.8317    4.6639 C.ar    1  UNL1        0.0013
     46 N          58.8826   93.2390    2.2186 N.am    1  UNL1       -0.2804
     47 C          59.2965   92.9333    0.8096 C.2     1  UNL1        0.2495
     48 O          60.0024   91.6470    0.4978 O.2     1  UNL1       -0.2698
     49 H          58.4193   94.0832    2.4234 H       1  UNL1        0.1552
     50 C          59.0045   93.9137   -0.2874 C.ar    1  UNL1        0.0538
     51 C          58.5543   95.3042    0.0499 C.ar    1  UNL1        0.0058
     52 C          58.2622   96.2847   -1.0471 C.ar    1  UNL1        0.0144
     53 C          58.4203   95.8746   -2.4812 C.ar    1  UNL1        0.0447
     54 C          58.8705   94.4841   -2.8185 C.ar    1  UNL1        0.0144
     55 C          59.1626   93.5036   -1.7215 C.ar    1  UNL1        0.0058
     56 N          58.1283   96.8551   -3.5782 N.pl3   1  UNL1       -0.3313
     57 C          58.3681   96.4732   -5.0089 C.3     1  UNL1        0.1085
     58 H          57.7792   97.7492   -3.3593 H       1  UNL1        0.1469
     59 C          64.8202   93.2591   11.9484 C.3     1  UNL1        0.1177
     60 C          65.8318   93.7626   10.9619 C.ar    1  UNL1       -0.0025
     61 C          66.8759   92.8333   10.4177 C.ar    1  UNL1       -0.0026
     62 C          67.8875   93.3368    9.4312 C.ar    1  UNL1       -0.0003
     63 C          67.8549   94.7697    8.9889 C.ar    1  UNL1       -0.0000
     64 C          66.8108   95.6991    9.5330 C.ar    1  UNL1       -0.0003
     65 C          65.7992   95.1956   10.5195 C.ar    1  UNL1       -0.0026
@<TRIPOS>BOND
     1    18    19    2
     2    19    17    1
     3    17     1    1
     4     1     2    1
     5     2     3    1
     6     3     4    2
     7     3     5   am
     8     5     6    1
     9     6    20    1
    10    20    21    1
    11    21    22   ar
    12    22    23   ar
    13    23    24   ar
    14    24    25    1
    15    24    26   ar
    16    26    27   ar
    17     6     7    1
    18     7     8    2
    19     7     9   am
    20     9    29    1
    21    29    30    1
    22    30    31   ar
    23    31    32   ar
    24    32    33   ar
    25    33    34   ar
    26    34    35   ar
    27    35    40    1
    28    40    41   ar
    29    41    42   ar
    30    42    43   ar
    31    43    46    1
    32    46    47   am
    33    47    48    2
    34    47    50    1
    35    50    51   ar
    36    51    52   ar
    37    52    53   ar
    38    53    56    1
    39    56    57    1
    40    53    54   ar
    41    54    55   ar
    42    43    44   ar
    43    44    45   ar
    44    35    36   ar
    45    36    37   ar
    46    37    38    1
    47    37    39   ar
    48     9    10    1
    49    11    10    1
    50    11    12    1
    51    12    13   am
    52    13    14    2
    53    13    15   am
    54    15    59    1
    55    59    60    1
    56    60    61   ar
    57    61    62   ar
    58    62    63   ar
    59    63    64   ar
    60    64    65   ar
    61    12     1    1
    62    65    60   ar
    63    11     5    1
    64    27    21   ar
    65    39    30   ar
    66    39    34   ar
    67    45    40   ar
    68    55    50   ar
    69    25    28    1
    70    46    49    1
    71    56    58    1
    72    15    16    1
@<TRIPOS>MOLECULE
*****
 65 72 0 0 0
SMALL
GASTEIGER

@<TRIPOS>ATOM
      1 N          65.5171   89.8758   13.8377 N.3     1  UNL1       -0.1862
      2 C          65.9404   88.7520   14.7366 C.3     1  UNL1        0.1775
      3 C          65.1767   87.4610   14.7337 C.2     1  UNL1        0.2452
      4 O          65.6001   86.3372   15.6326 O.2     1  UNL1       -0.2732
      5 N          63.9898   87.2936   13.8320 N.am    1  UNL1       -0.2541
      6 C          63.2262   86.0025   13.8291 C.3     1  UNL1        0.1577
      7 C          62.0393   85.8352   12.9274 C.2     1  UNL1        0.2445
      8 O          61.2757   84.5441   12.9245 O.2     1  UNL1       -0.2731
      9 N          61.6159   86.9590   12.0284 N.am    1  UNL1       -0.2705
     10 C          62.3796   88.2500   12.0313 C.3     1  UNL1        0.1359
     11 C          63.5665   88.4173   12.9331 C.3     1  UNL1        0.1908
     12 N          64.3302   89.7084   12.9360 N.am    1  UNL1       -0.1863
     13 C          63.9068   90.8322   12.0370 C.2     1  UNL1        0.3191
     14 O          62.7199   90.6648   11.1353 O.2     1  UNL1       -0.2512
     15 N          64.6704   92.1233   12.0399 N.am    1  UNL1       -0.2836
     16 H          65.4495   92.2331   12.6318 H       1  UNL1        0.1513
     17 C          66.2807   91.1668   13.8406 C.3     1  UNL1        0.1188
     18 C          67.1674   92.5390   15.8607 C.2     1  UNL1       -0.0034
     19 C          67.3316   91.4143   14.8819 C.2     1  UNL1       -0.0071
     20 C          63.6495   84.8788   14.7280 C.3     1  UNL1        0.0556
     21 C          63.3680   83.4584   14.3365 C.ar    1  UNL1       -0.0198
     22 C          62.1712   82.7491   14.8971 C.ar    1  UNL1       -0.0011
     23 C          61.8896   81.3287   14.5056 C.ar    1  UNL1        0.0363
     24 C          62.8049   80.6177   13.5534 C.ar    1  UNL1        0.1337
     25 O          62.5234   79.1973   13.1619 O.3     1  UNL1       -0.5055
     26 C          64.0018   81.3271   12.9926 C.ar    1  UNL1        0.0363
     27 C          64.2833   82.7475   13.3842 C.ar    1  UNL1       -0.0011
     28 H          61.7757   78.7542   13.5121 H       1  UNL1        0.2922
     29 C          60.4290   86.7916   11.1267 C.3     1  UNL1        0.1217
     30 C          60.5665   87.0350    9.6529 C.ar    1  UNL1        0.0135
     31 C          61.0757   85.9451    8.7571 C.ar    1  UNL1       -0.0012
     32 C          61.2132   86.1884    7.2834 C.ar    1  UNL1       -0.0002
     33 C          60.8415   87.5218    6.7056 C.ar    1  UNL1        0.0015
     34 C          60.3322   88.6118    7.6014 C.ar    1  UNL1        0.0170
     35 C          59.8910   90.0176    7.3207 C.ar    1  UNL1        0.0186
     36 C          59.4808   90.6431    8.6209 C.ar    1  UNL1        0.0759
     37 N          59.6685   89.6238    9.7051 N.ar    1  UNL1       -0.3242
     38 C          59.3806   89.8247   11.1635 C.3     1  UNL1        0.1305
     39 C          60.1947   88.3684    9.0751 C.ar    1  UNL1        0.0575
     40 C          59.8646   90.6815    5.9758 C.ar    1  UNL1        0.0016
     41 C          61.1318   90.8280    5.1867 C.ar    1  UNL1        0.0013
     42 C          61.1053   91.4918    3.8419 C.ar    1  UNL1        0.0147
     43 C          59.8117   92.0091    3.2861 C.ar    1  UNL1        0.0505
     44 C          58.5444   91.8627    4.0752 C.ar    1  UNL1        0.0147
     45 C          58.5709   91.1988    5.4200 C.ar    1  UNL1        0.0013
     46 N          59.7853   92.6730    1.9413 N.am    1  UNL1       -0.2804
     47 C          60.9978   92.6293    1.0593 C.2     1  UNL1        0.2495
     48 O          62.2368   91.9218    1.5222 O.2     1  UNL1       -0.2698
     49 H          58.9721   93.1373    1.6374 H       1  UNL1        0.1552
     50 C          60.9714   93.2931   -0.2855 C.ar    1  UNL1        0.0538
     51 C          59.8373   93.0275   -1.2308 C.ar    1  UNL1        0.0058
     52 C          59.8108   93.6913   -2.5756 C.ar    1  UNL1        0.0144
     53 C          60.9182   94.6207   -2.9752 C.ar    1  UNL1        0.0447
     54 C          62.0522   94.8864   -2.0300 C.ar    1  UNL1        0.0144
     55 C          62.0788   94.2226   -0.6852 C.ar    1  UNL1        0.0058
     56 N          60.8917   95.2846   -4.3201 N.pl3   1  UNL1       -0.3313
     57 C          59.6658   96.0244   -4.7673 C.3     1  UNL1        0.1085
     58 H          61.6789   95.2347   -4.9092 H       1  UNL1        0.1469
     59 C          64.2471   93.2470   11.1410 C.3     1  UNL1        0.1177
     60 C          65.2811   94.0699   10.4313 C.ar    1  UNL1       -0.0025
     61 C          66.5458   93.4274    9.9438 C.ar    1  UNL1       -0.0026
     62 C          67.5798   94.2503    9.2340 C.ar    1  UNL1       -0.0003
     63 C          67.3491   95.7157    9.0118 C.ar    1  UNL1       -0.0000
     64 C          66.0843   96.3582    9.4993 C.ar    1  UNL1       -0.0003
     65 C          65.0503   95.5353   10.2090 C.ar    1  UNL1       -0.0026
@<TRIPOS>BOND
     1    18    19    2
     2    19    17    1
     3    17     1    1
     4     1     2    1
     5     2     3    1
     6     3     4    2
     7     3     5   am
     8     5     6    1
     9     6    20    1
    10    20    21    1
    11    21    22   ar
    12    22    23   ar
    13    23    24   ar
    14    24    25    1
    15    24    26   ar
    16    26    27   ar
    17     6     7    1
    18     7     8    2
    19     7     9   am
    20     9    29    1
    21    29    30    1
    22    30    31   ar
    23    31    32   ar
    24    32    33   ar
    25    33    34   ar
    26    34    35   ar
    27    35    40    1
    28    40    41   ar
    29    41    42   ar
    30    42    43   ar
    31    43    46    1
    32    46    47   am
    33    47    48    2
    34    47    50    1
    35    50    51   ar
    36    51    52   ar
    37    52    53   ar
    38    53    56    1
    39    56    57    1
    40    53    54   ar
    41    54    55   ar
    42    43    44   ar
    43    44    45   ar
    44    35    36   ar
    45    36    37   ar
    46    37    38    1
    47    37    39   ar
    48     9    10    1
    49    11    10    1
    50    11    12    1
    51    12    13   am
    52    13    14    2
    53    13    15   am
    54    15    59    1
    55    59    60    1
    56    60    61   ar
    57    61    62   ar
    58    62    63   ar
    59    63    64   ar
    60    64    65   ar
    61    12     1    1
    62    65    60   ar
    63    11     5    1
    64    27    21   ar
    65    39    30   ar
    66    39    34   ar
    67    45    40   ar
    68    55    50   ar
    69    25    28    1
    70    46    49    1
    71    56    58    1
    72    15    16    1
