@<TRIPOS>MOLECULE
*****
 30 34 0 0 0
SMALL
GASTEIGER

@<TRIPOS>ATOM
      1 N          64.1022   90.7470   14.6520 N.ar    1  UNL1       -0.3106
      2 C          63.8079   90.7186   13.1815 C.ar    1  UNL1        0.1215
      3 N          64.7465   91.6714   12.5024 N.ar    1  UNL1       -0.2309
      4 C          65.6209   92.2887   13.5533 C.ar    1  UNL1        0.0983
      5 C          66.7282   93.2973   13.4721 C.ar    1  UNL1        0.0206
      6 C          67.4374   93.7345   14.7194 C.ar    1  UNL1        0.0016
      7 C          67.0391   93.1632   16.0480 C.ar    1  UNL1        0.0016
      8 C          65.9318   92.1547   16.1292 C.ar    1  UNL1        0.0188
      9 C          65.2227   91.7174   14.8819 C.ar    1  UNL1        0.0789
     10 C          62.7591   89.8838   12.5082 C.3     1  UNL1        0.0729
     11 C          61.3457   90.3790   12.4250 C.3     1  UNL1        0.0103
     12 C          60.2969   89.5443   11.7517 C.3     1  UNL1        0.0178
     13 C          60.6616   88.2144   11.1616 C.3     1  UNL1        0.0721
     14 N          62.0750   87.7192   11.2448 N.3     1  UNL1       -0.2736
     15 C          63.1237   88.5539   11.9181 C.3     1  UNL1        0.0795
     16 C          62.4397   86.3892   10.6546 C.3     1  UNL1        0.0575
     17 C          62.5764   86.2403    9.1683 C.3     1  UNL1        0.0160
     18 C          62.9411   84.9105    8.5782 C.3     1  UNL1        0.0014
     19 C          63.1691   83.7293    9.4743 C.3     1  UNL1        0.0001
     20 C          63.0324   83.8782   10.9606 C.3     1  UNL1        0.0014
     21 C          62.6677   85.2082   11.5508 C.3     1  UNL1        0.0160
     22 C          63.3994   89.9458   15.7075 C.3     1  UNL1        0.1339
     23 C          63.9234   85.4791   15.8636 C.ar    1  UNL1        0.1387
     24 C          63.1147   86.1766   16.9169 C.ar    1  UNL1        0.0366
     25 C          62.9400   87.6655   16.8649 C.ar    1  UNL1        0.0007
     26 C          63.5741   88.4569   15.7595 C.ar    1  UNL1        0.0006
     27 C          64.3828   87.7594   14.7062 C.ar    1  UNL1        0.0007
     28 C          64.5574   86.2705   14.7583 C.ar    1  UNL1        0.0366
     29 C          63.9221   83.1705   14.6717 C.3     1  UNL1        0.2525
     30 O          64.0980   83.9902   15.9156 O.3     1  UNL1       -0.4714
@<TRIPOS>BOND
     1    29    30    1
     2    30    23    1
     3    23    24   ar
     4    24    25   ar
     5    25    26   ar
     6    26    22    1
     7    22     1    1
     8     1     2   ar
     9     2    10    1
    10    10    11    1
    11    11    12    1
    12    12    13    1
    13    13    14    1
    14    14    16    1
    15    16    17    1
    16    17    18    1
    17    18    19    1
    18    19    20    1
    19    20    21    1
    20    14    15    1
    21     2     3   ar
    22     3     4   ar
    23     4     5   ar
    24     5     6   ar
    25     6     7   ar
    26     7     8   ar
    27     8     9   ar
    28    26    27   ar
    29    27    28   ar
    30    28    23   ar
    31     9     1   ar
    32    15    10    1
    33     9     4   ar
    34    21    16    1
@<TRIPOS>MOLECULE
*****
 30 34 0 0 0
SMALL
GASTEIGER

@<TRIPOS>ATOM
      1 N          63.6772   90.5397   13.0162 N.ar    1  UNL1       -0.3106
      2 C          64.4441   89.8965   14.1334 C.ar    1  UNL1        0.1215
      3 N          65.7886   90.5567   14.2129 N.ar    1  UNL1       -0.2309
      4 C          65.8527   91.6081   13.1449 C.ar    1  UNL1        0.0983
      5 C          66.9306   92.5736   12.7503 C.ar    1  UNL1        0.0206
      6 C          66.7036   93.5286   11.6161 C.ar    1  UNL1        0.0016
      7 C          65.3987   93.5181   10.8766 C.ar    1  UNL1        0.0016
      8 C          64.3207   92.5526   11.2711 C.ar    1  UNL1        0.0188
      9 C          64.5477   91.5976   12.4053 C.ar    1  UNL1        0.0789
     10 C          63.9528   88.7876   15.0160 C.3     1  UNL1        0.0729
     11 C          63.4742   89.0907   16.4049 C.3     1  UNL1        0.0103
     12 C          62.9829   87.9818   17.2875 C.3     1  UNL1        0.0178
     13 C          62.9702   86.5699   16.7813 C.3     1  UNL1        0.0721
     14 N          63.4488   86.2669   15.3925 N.3     1  UNL1       -0.2736
     15 C          63.9401   87.3757   14.5098 C.3     1  UNL1        0.0795
     16 C          63.4362   84.8549   14.8862 C.3     1  UNL1        0.0575
     17 C          64.5359   84.3701   13.9886 C.3     1  UNL1        0.0160
     18 C          64.5233   82.9582   13.4824 C.3     1  UNL1        0.0014
     19 C          63.4109   82.0310   13.8736 C.3     1  UNL1        0.0001
     20 C          62.3112   82.5158   14.7711 C.3     1  UNL1        0.0014
     21 C          62.3238   83.9278   15.2774 C.3     1  UNL1        0.0160
     22 C          62.2843   90.1871   12.5856 C.3     1  UNL1        0.1339
     23 C          61.6361   87.1313    9.3465 C.ar    1  UNL1        0.1387
     24 C          62.3859   86.7577   10.5908 C.ar    1  UNL1        0.0366
     25 C          62.6019   87.7764   11.6705 C.ar    1  UNL1        0.0007
     26 C          62.0682   89.1686   11.5059 C.ar    1  UNL1        0.0006
     27 C          61.3186   89.5421   10.2615 C.ar    1  UNL1        0.0007
     28 C          61.1025   88.5235    9.1819 C.ar    1  UNL1        0.0366
     29 C          60.0824   86.0017    7.5971 C.3     1  UNL1        0.2525
     30 O          61.4201   86.1127    8.2668 O.3     1  UNL1       -0.4714
@<TRIPOS>BOND
     1    29    30    1
     2    30    23    1
     3    23    24   ar
     4    24    25   ar
     5    25    26   ar
     6    26    22    1
     7    22     1    1
     8     1     2   ar
     9     2    10    1
    10    10    11    1
    11    11    12    1
    12    12    13    1
    13    13    14    1
    14    14    16    1
    15    16    17    1
    16    17    18    1
    17    18    19    1
    18    19    20    1
    19    20    21    1
    20    14    15    1
    21     2     3   ar
    22     3     4   ar
    23     4     5   ar
    24     5     6   ar
    25     6     7   ar
    26     7     8   ar
    27     8     9   ar
    28    26    27   ar
    29    27    28   ar
    30    28    23   ar
    31     9     1   ar
    32    15    10    1
    33     9     4   ar
    34    21    16    1
@<TRIPOS>MOLECULE
*****
 30 34 0 0 0
SMALL
GASTEIGER

@<TRIPOS>ATOM
      1 N          63.2145   84.2350   13.0078 N.ar    1  UNL1       -0.3106
      2 C          63.0122   84.5023   14.4698 C.ar    1  UNL1        0.1215
      3 N          62.6492   83.2062   15.1320 N.ar    1  UNL1       -0.2309
      4 C          62.6272   82.1379   14.0791 C.ar    1  UNL1        0.0983
      5 C          62.3342   80.6684   14.1463 C.ar    1  UNL1        0.0206
      6 C          62.3906   79.8348   12.9006 C.ar    1  UNL1        0.0016
      7 C          62.7400   80.4706   11.5878 C.ar    1  UNL1        0.0016
      8 C          63.0331   81.9402   11.5206 C.ar    1  UNL1        0.0188
      9 C          62.9766   82.7738   12.7663 C.ar    1  UNL1        0.0789
     10 C          63.1488   85.8320   15.1503 C.3     1  UNL1        0.0729
     11 C          62.8474   85.9600   16.6141 C.3     1  UNL1        0.0103
     12 C          62.9840   87.2898   17.2945 C.3     1  UNL1        0.0178
     13 C          63.4220   88.4916   16.5112 C.3     1  UNL1        0.0721
     14 N          63.7234   88.3637   15.0474 N.3     1  UNL1       -0.2736
     15 C          63.5867   87.0339   14.3669 C.3     1  UNL1        0.0795
     16 C          64.1614   89.5656   14.2640 C.3     1  UNL1        0.0575
     17 C          63.5001   89.8910   12.9575 C.3     1  UNL1        0.0160
     18 C          63.9381   91.0928   12.1741 C.3     1  UNL1        0.0014
     19 C          65.0373   91.9692   12.6971 C.3     1  UNL1        0.0001
     20 C          65.6986   91.6438   14.0036 C.3     1  UNL1        0.0014
     21 C          65.2606   90.4419   14.7870 C.3     1  UNL1        0.0160
     22 C          63.5891   85.2507   11.9694 C.3     1  UNL1        0.1339
     23 C          60.6069   86.4567    8.8227 C.ar    1  UNL1        0.1387
     24 C          61.8042   85.6354    8.4458 C.ar    1  UNL1        0.0366
     25 C          62.7982   85.2334    9.4947 C.ar    1  UNL1        0.0007
     26 C          62.5950   85.6527   10.9206 C.ar    1  UNL1        0.0006
     27 C          61.3977   86.4740   11.2974 C.ar    1  UNL1        0.0007
     28 C          60.4037   86.8760   10.2485 C.ar    1  UNL1        0.0366
     29 C          59.3243   88.3106    7.5311 C.3     1  UNL1        0.2525
     30 O          59.6128   86.8587    7.7738 O.3     1  UNL1       -0.4714
@<TRIPOS>BOND
     1    29    30    1
     2    30    23    1
     3    23    24   ar
     4    24    25   ar
     5    25    26   ar
     6    26    22    1
     7    22     1    1
     8     1     2   ar
     9     2    10    1
    10    10    11    1
    11    11    12    1
    12    12    13    1
    13    13    14    1
    14    14    16    1
    15    16    17    1
    16    17    18    1
    17    18    19    1
    18    19    20    1
    19    20    21    1
    20    14    15    1
    21     2     3   ar
    22     3     4   ar
    23     4     5   ar
    24     5     6   ar
    25     6     7   ar
    26     7     8   ar
    27     8     9   ar
    28    26    27   ar
    29    27    28   ar
    30    28    23   ar
    31     9     1   ar
    32    15    10    1
    33     9     4   ar
    34    21    16    1
@<TRIPOS>MOLECULE
*****
 30 34 0 0 0
SMALL
GASTEIGER

@<TRIPOS>ATOM
      1 N          62.1137   88.3129   10.8802 N.ar    1  UNL1       -0.3106
      2 C          62.4472   89.7577   10.6538 C.ar    1  UNL1        0.1215
      3 N          61.6227   90.2485    9.5008 N.ar    1  UNL1       -0.2309
      4 C          60.7796   89.1070    9.0147 C.ar    1  UNL1        0.0983
      5 C          59.7748   89.0025    7.9060 C.ar    1  UNL1        0.0206
      6 C          59.0734   87.7016    7.6497 C.ar    1  UNL1        0.0016
      7 C          59.3768   86.5053    8.5022 C.ar    1  UNL1        0.0016
      8 C          60.3816   86.6098    9.6110 C.ar    1  UNL1        0.0188
      9 C          61.0830   87.9107    9.8672 C.ar    1  UNL1        0.0789
     10 C          63.4323   90.5691   11.4419 C.3     1  UNL1        0.0729
     11 C          63.5971   90.3268   12.9129 C.3     1  UNL1        0.0103
     12 C          64.5822   91.1382   13.7010 C.3     1  UNL1        0.0178
     13 C          65.4025   92.1921   13.0181 C.3     1  UNL1        0.0721
     14 N          65.2377   92.4345   11.5470 N.3     1  UNL1       -0.2736
     15 C          64.2526   91.6230   10.7589 C.3     1  UNL1        0.0795
     16 C          66.0580   93.4884   10.8640 C.3     1  UNL1        0.0575
     17 C          65.8259   94.9375   11.1741 C.3     1  UNL1        0.0160
     18 C          66.6461   95.9914   10.4912 C.3     1  UNL1        0.0014
     19 C          67.6985   95.5962    9.4980 C.3     1  UNL1        0.0001
     20 C          67.9306   94.1471    9.1879 C.3     1  UNL1        0.0014
     21 C          67.1103   93.0931    9.8709 C.3     1  UNL1        0.0160
     22 C          62.7066   87.4258   11.9345 C.3     1  UNL1        0.1339
     23 C          63.0590   82.9981   11.2126 C.ar    1  UNL1        0.1387
     24 C          63.2787   83.9618   10.0843 C.ar    1  UNL1        0.0366
     25 C          63.1613   85.4377   10.3250 C.ar    1  UNL1        0.0007
     26 C          62.8241   85.9500   11.6939 C.ar    1  UNL1        0.0006
     27 C          62.6043   84.9863   12.8222 C.ar    1  UNL1        0.0007
     28 C          62.7218   83.5104   12.5815 C.ar    1  UNL1        0.0366
     29 C          62.8198   80.5540   12.0608 C.3     1  UNL1        0.2525
     30 O          63.1764   81.5222   10.9720 O.3     1  UNL1       -0.4714
@<TRIPOS>BOND
     1    29    30    1
     2    30    23    1
     3    23    24   ar
     4    24    25   ar
     5    25    26   ar
     6    26    22    1
     7    22     1    1
     8     1     2   ar
     9     2    10    1
    10    10    11    1
    11    11    12    1
    12    12    13    1
    13    13    14    1
    14    14    16    1
    15    16    17    1
    16    17    18    1
    17    18    19    1
    18    19    20    1
    19    20    21    1
    20    14    15    1
    21     2     3   ar
    22     3     4   ar
    23     4     5   ar
    24     5     6   ar
    25     6     7   ar
    26     7     8   ar
    27     8     9   ar
    28    26    27   ar
    29    27    28   ar
    30    28    23   ar
    31     9     1   ar
    32    15    10    1
    33     9     4   ar
    34    21    16    1
@<TRIPOS>MOLECULE
*****
 30 34 0 0 0
SMALL
GASTEIGER

@<TRIPOS>ATOM
      1 N          63.0910   86.3468   12.6465 N.ar    1  UNL1       -0.3106
      2 C          63.7230   86.7934   13.9314 C.ar    1  UNL1        0.1215
      3 N          64.2089   85.5739   14.6573 N.ar    1  UNL1       -0.2309
      4 C          63.8772   84.3737   13.8209 C.ar    1  UNL1        0.0983
      5 C          64.1150   82.9076   14.0304 C.ar    1  UNL1        0.0206
      6 C          63.6619   81.9192   12.9971 C.ar    1  UNL1        0.0016
      7 C          62.9710   82.3969   11.7543 C.ar    1  UNL1        0.0016
      8 C          62.7332   83.8630   11.5448 C.ar    1  UNL1        0.0188
      9 C          63.1863   84.8514   12.5781 C.ar    1  UNL1        0.0789
     10 C          63.8474   88.2105   14.4071 C.3     1  UNL1        0.0729
     11 C          63.4618   88.5666   15.8123 C.3     1  UNL1        0.0103
     12 C          63.5861   89.9837   16.2879 C.3     1  UNL1        0.0178
     13 C          64.0960   91.0448   15.3584 C.3     1  UNL1        0.0721
     14 N          64.4815   90.6888   13.9532 N.3     1  UNL1       -0.2736
     15 C          64.3572   89.2716   13.4776 C.3     1  UNL1        0.0795
     16 C          64.9914   91.7499   13.0236 C.3     1  UNL1        0.0575
     17 C          65.9258   92.8071   13.5327 C.3     1  UNL1        0.0160
     18 C          66.4357   93.8682   12.6032 C.3     1  UNL1        0.0014
     19 C          66.0112   93.8721   11.1644 C.3     1  UNL1        0.0001
     20 C          65.0768   92.8149   10.6553 C.3     1  UNL1        0.0014
     21 C          64.5669   91.7538   11.5849 C.3     1  UNL1        0.0160
     22 C          62.4724   87.2391   11.6115 C.3     1  UNL1        0.1339
     23 C          61.1969   85.5374    7.6457 C.ar    1  UNL1        0.1387
     24 C          62.6342   85.4596    8.0679 C.ar    1  UNL1        0.0366
     25 C          63.0593   86.0268    9.3898 C.ar    1  UNL1        0.0007
     26 C          62.0472   86.6719   10.2896 C.ar    1  UNL1        0.0006
     27 C          60.6100   86.7497    9.8674 C.ar    1  UNL1        0.0007
     28 C          60.1848   86.1825    8.5455 C.ar    1  UNL1        0.0366
     29 C          61.7201   84.1181    5.5334 C.3     1  UNL1        0.2525
     30 O          60.7718   84.9702    6.3238 O.3     1  UNL1       -0.4714
@<TRIPOS>BOND
     1    29    30    1
     2    30    23    1
     3    23    24   ar
     4    24    25   ar
     5    25    26   ar
     6    26    22    1
     7    22     1    1
     8     1     2   ar
     9     2    10    1
    10    10    11    1
    11    11    12    1
    12    12    13    1
    13    13    14    1
    14    14    16    1
    15    16    17    1
    16    17    18    1
    17    18    19    1
    18    19    20    1
    19    20    21    1
    20    14    15    1
    21     2     3   ar
    22     3     4   ar
    23     4     5   ar
    24     5     6   ar
    25     6     7   ar
    26     7     8   ar
    27     8     9   ar
    28    26    27   ar
    29    27    28   ar
    30    28    23   ar
    31     9     1   ar
    32    15    10    1
    33     9     4   ar
    34    21    16    1
@<TRIPOS>MOLECULE
*****
 30 34 0 0 0
SMALL
GASTEIGER

@<TRIPOS>ATOM
      1 N          62.4243   85.8793   12.2620 N.ar    1  UNL1       -0.3106
      2 C          63.3352   86.8516   12.9512 C.ar    1  UNL1        0.1215
      3 N          64.1588   86.0895   13.9466 N.ar    1  UNL1       -0.2309
      4 C          63.7570   84.6462   13.8726 C.ar    1  UNL1        0.0983
      5 C          64.2288   83.4335   14.6187 C.ar    1  UNL1        0.0206
      6 C          63.6285   82.0909   14.3236 C.ar    1  UNL1        0.0016
      7 C          62.5565   81.9610   13.2825 C.ar    1  UNL1        0.0016
      8 C          62.0848   83.1737   12.5364 C.ar    1  UNL1        0.0188
      9 C          62.6850   84.5163   12.8314 C.ar    1  UNL1        0.0789
     10 C          63.4094   88.3270   12.6908 C.3     1  UNL1        0.0729
     11 C          62.5702   88.9408   11.6096 C.3     1  UNL1        0.0103
     12 C          62.6444   90.4162   11.3492 C.3     1  UNL1        0.0178
     13 C          63.5577   91.2777   12.1699 C.3     1  UNL1        0.0721
     14 N          64.3969   90.6638   13.2510 N.3     1  UNL1       -0.2736
     15 C          64.3227   89.1884   13.5115 C.3     1  UNL1        0.0795
     16 C          65.3103   91.5253   14.0718 C.3     1  UNL1        0.0575
     17 C          66.4284   92.2755   13.4108 C.3     1  UNL1        0.0160
     18 C          67.3417   93.1370   14.2315 C.3     1  UNL1        0.0014
     19 C          67.1370   93.2482   15.7133 C.3     1  UNL1        0.0001
     20 C          66.0189   92.4980   16.3744 C.3     1  UNL1        0.0014
     21 C          65.1055   91.6365   15.5536 C.3     1  UNL1        0.0160
     22 C          61.4277   86.2117   11.1914 C.3     1  UNL1        0.1339
     23 C          62.2180   85.0054    6.9287 C.ar    1  UNL1        0.1387
     24 C          63.2511   84.7469    7.9852 C.ar    1  UNL1        0.0366
     25 C          62.9876   85.1490    9.4060 C.ar    1  UNL1        0.0007
     26 C          61.6911   85.8096    9.7706 C.ar    1  UNL1        0.0006
     27 C          60.6581   86.0681    8.7141 C.ar    1  UNL1        0.0007
     28 C          60.9216   85.6660    7.2932 C.ar    1  UNL1        0.0366
     29 C          61.4430   83.8412    4.7391 C.3     1  UNL1        0.2525
     30 O          62.4815   84.6033    5.5079 O.3     1  UNL1       -0.4714
@<TRIPOS>BOND
     1    29    30    1
     2    30    23    1
     3    23    24   ar
     4    24    25   ar
     5    25    26   ar
     6    26    22    1
     7    22     1    1
     8     1     2   ar
     9     2    10    1
    10    10    11    1
    11    11    12    1
    12    12    13    1
    13    13    14    1
    14    14    16    1
    15    16    17    1
    16    17    18    1
    17    18    19    1
    18    19    20    1
    19    20    21    1
    20    14    15    1
    21     2     3   ar
    22     3     4   ar
    23     4     5   ar
    24     5     6   ar
    25     6     7   ar
    26     7     8   ar
    27     8     9   ar
    28    26    27   ar
    29    27    28   ar
    30    28    23   ar
    31     9     1   ar
    32    15    10    1
    33     9     4   ar
    34    21    16    1
@<TRIPOS>MOLECULE
*****
 30 34 0 0 0
SMALL
GASTEIGER

@<TRIPOS>ATOM
      1 N          61.4288   88.4765   10.9892 N.ar    1  UNL1       -0.3106
      2 C          61.8098   87.0257   11.0013 C.ar    1  UNL1        0.1215
      3 N          61.3220   86.4078    9.7245 N.ar    1  UNL1       -0.2309
      4 C          60.6396   87.4767    8.9233 C.ar    1  UNL1        0.0983
      5 C          59.9666   87.4509    7.5830 C.ar    1  UNL1        0.0206
      6 C          59.3597   88.7037    7.0244 C.ar    1  UNL1        0.0016
      7 C          59.4258   89.9823    7.8061 C.ar    1  UNL1        0.0016
      8 C          60.0987   90.0080    9.1464 C.ar    1  UNL1        0.0188
      9 C          60.7056   88.7552    9.7050 C.ar    1  UNL1        0.0789
     10 C          62.5487   86.3172   12.0977 C.3     1  UNL1        0.0729
     11 C          63.4965   87.0782   12.9767 C.3     1  UNL1        0.0103
     12 C          64.2354   86.3697   14.0731 C.3     1  UNL1        0.0178
     13 C          64.0266   84.9003   14.2904 C.3     1  UNL1        0.0721
     14 N          63.0789   84.1394   13.4114 N.3     1  UNL1       -0.2736
     15 C          62.3399   84.8479   12.3151 C.3     1  UNL1        0.0795
     16 C          62.8700   82.6700   13.6288 C.3     1  UNL1        0.0575
     17 C          64.0190   81.7182   13.4742 C.3     1  UNL1        0.0160
     18 C          63.8102   80.2488   13.6915 C.3     1  UNL1        0.0014
     19 C          62.4524   79.7311   14.0634 C.3     1  UNL1        0.0001
     20 C          61.3033   80.6829   14.2180 C.3     1  UNL1        0.0014
     21 C          61.5122   82.1523   14.0007 C.3     1  UNL1        0.0160
     22 C          61.7200   89.4735   12.0714 C.3     1  UNL1        0.1339
     23 C          65.2307   92.2609   11.6777 C.ar    1  UNL1        0.1387
     24 C          64.3843   91.9470   10.4797 C.ar    1  UNL1        0.0366
     25 C          63.2141   91.0179   10.6110 C.ar    1  UNL1        0.0007
     26 C          62.8902   90.4026   11.9402 C.ar    1  UNL1        0.0006
     27 C          63.7367   90.7166   13.1381 C.ar    1  UNL1        0.0007
     28 C          64.9069   91.6457   13.0068 C.ar    1  UNL1        0.0366
     29 C          66.1767   94.6704   11.4542 C.3     1  UNL1        0.2525
     30 O          66.4010   93.1900   11.5464 O.3     1  UNL1       -0.4714
@<TRIPOS>BOND
     1    29    30    1
     2    30    23    1
     3    23    24   ar
     4    24    25   ar
     5    25    26   ar
     6    26    22    1
     7    22     1    1
     8     1     2   ar
     9     2    10    1
    10    10    11    1
    11    11    12    1
    12    12    13    1
    13    13    14    1
    14    14    16    1
    15    16    17    1
    16    17    18    1
    17    18    19    1
    18    19    20    1
    19    20    21    1
    20    14    15    1
    21     2     3   ar
    22     3     4   ar
    23     4     5   ar
    24     5     6   ar
    25     6     7   ar
    26     7     8   ar
    27     8     9   ar
    28    26    27   ar
    29    27    28   ar
    30    28    23   ar
    31     9     1   ar
    32    15    10    1
    33     9     4   ar
    34    21    16    1
@<TRIPOS>MOLECULE
*****
 30 34 0 0 0
SMALL
GASTEIGER

@<TRIPOS>ATOM
      1 N          62.6822   89.0445   11.7516 N.ar    1  UNL1       -0.3106
      2 C          63.0876   90.3841   11.2121 C.ar    1  UNL1        0.1215
      3 N          62.2651   90.6592    9.9883 N.ar    1  UNL1       -0.2309
      4 C          61.3513   89.4896    9.7715 C.ar    1  UNL1        0.0983
      5 C          60.3178   89.2043    8.7224 C.ar    1  UNL1        0.0206
      6 C          59.5421   87.9212    8.7632 C.ar    1  UNL1        0.0016
      7 C          59.7999   86.9232    9.8530 C.ar    1  UNL1        0.0016
      8 C          60.8334   87.2085   10.9020 C.ar    1  UNL1        0.0188
      9 C          61.6091   88.4916   10.8613 C.ar    1  UNL1        0.0789
     10 C          64.1322   91.2897   11.7943 C.3     1  UNL1        0.0729
     11 C          64.5638   91.1174   13.2204 C.3     1  UNL1        0.0103
     12 C          65.6083   92.0230   13.8025 C.3     1  UNL1        0.0178
     13 C          66.2214   93.1007   12.9585 C.3     1  UNL1        0.0721
     14 N          65.7898   93.2730   11.5323 N.3     1  UNL1       -0.2736
     15 C          64.7452   92.3674   10.9502 C.3     1  UNL1        0.0795
     16 C          66.4029   94.3508   10.6881 C.3     1  UNL1        0.0575
     17 C          67.0435   94.0034    9.3771 C.3     1  UNL1        0.0160
     18 C          67.6565   95.0811    8.5329 C.3     1  UNL1        0.0014
     19 C          67.6289   96.5064    8.9998 C.3     1  UNL1        0.0001
     20 C          66.9883   96.8538   10.3109 C.3     1  UNL1        0.0014
     21 C          66.3752   95.7760   11.1550 C.3     1  UNL1        0.0160
     22 C          63.2502   88.3752   12.9680 C.3     1  UNL1        0.1339
     23 C          63.7673   83.9057   13.0422 C.ar    1  UNL1        0.1387
     24 C          64.2475   84.7355   14.1958 C.ar    1  UNL1        0.0366
     25 C          64.0752   86.2253   14.1710 C.ar    1  UNL1        0.0007
     26 C          63.4225   86.8854   12.9927 C.ar    1  UNL1        0.0006
     27 C          62.9423   86.0555   11.8392 C.ar    1  UNL1        0.0007
     28 C          63.1146   84.5657   11.8640 C.ar    1  UNL1        0.0366
     29 C          62.9220   81.5544   13.7545 C.3     1  UNL1        0.2525
     30 O          63.9396   82.4158   13.0670 O.3     1  UNL1       -0.4714
@<TRIPOS>BOND
     1    29    30    1
     2    30    23    1
     3    23    24   ar
     4    24    25   ar
     5    25    26   ar
     6    26    22    1
     7    22     1    1
     8     1     2   ar
     9     2    10    1
    10    10    11    1
    11    11    12    1
    12    12    13    1
    13    13    14    1
    14    14    16    1
    15    16    17    1
    16    17    18    1
    17    18    19    1
    18    19    20    1
    19    20    21    1
    20    14    15    1
    21     2     3   ar
    22     3     4   ar
    23     4     5   ar
    24     5     6   ar
    25     6     7   ar
    26     7     8   ar
    27     8     9   ar
    28    26    27   ar
    29    27    28   ar
    30    28    23   ar
    31     9     1   ar
    32    15    10    1
    33     9     4   ar
    34    21    16    1
@<TRIPOS>MOLECULE
*****
 30 34 0 0 0
SMALL
GASTEIGER

@<TRIPOS>ATOM
      1 N          62.9936   85.1494   11.8755 N.ar    1  UNL1       -0.3106
      2 C          63.0794   86.2182   12.9244 C.ar    1  UNL1        0.1215
      3 N          62.9401   85.5627   14.2664 N.ar    1  UNL1       -0.2309
      4 C          62.7682   84.0888   14.0469 C.ar    1  UNL1        0.0983
      5 C          62.5858   82.9464   15.0016 C.ar    1  UNL1        0.0206
      6 C          62.4365   81.5485   14.4786 C.ar    1  UNL1        0.0016
      7 C          62.4696   81.2931   13.0009 C.ar    1  UNL1        0.0016
      8 C          62.6520   82.4355   12.0462 C.ar    1  UNL1        0.0188
      9 C          62.8013   83.8334   12.5692 C.ar    1  UNL1        0.0789
     10 C          63.2709   87.6849   12.6752 C.3     1  UNL1        0.0729
     11 C          62.7210   88.3118   11.4284 C.3     1  UNL1        0.0103
     12 C          62.9125   89.7785   11.1791 C.3     1  UNL1        0.0178
     13 C          63.6539   90.6182   12.1766 C.3     1  UNL1        0.0721
     14 N          64.2038   89.9913   13.4234 N.3     1  UNL1       -0.2736
     15 C          64.0123   88.5246   13.6727 C.3     1  UNL1        0.0795
     16 C          64.9453   90.8311   14.4210 C.3     1  UNL1        0.0575
     17 C          64.2464   91.3239   15.6533 C.3     1  UNL1        0.0160
     18 C          64.9877   92.1637   16.6509 C.3     1  UNL1        0.0014
     19 C          66.4281   92.5106   16.4161 C.3     1  UNL1        0.0001
     20 C          67.1271   92.0177   15.1838 C.3     1  UNL1        0.0014
     21 C          66.3856   91.1779   14.1862 C.3     1  UNL1        0.0160
     22 C          63.0843   85.3596   10.3931 C.3     1  UNL1        0.1339
     23 C          59.6086   87.1386    8.1559 C.ar    1  UNL1        0.1387
     24 C          60.6824   86.4023    7.4108 C.ar    1  UNL1        0.0366
     25 C          61.8409   85.8093    8.1566 C.ar    1  UNL1        0.0007
     26 C          61.9258   85.9526    9.6474 C.ar    1  UNL1        0.0006
     27 C          60.8520   86.6889   10.3923 C.ar    1  UNL1        0.0007
     28 C          59.6935   87.2818    9.6466 C.ar    1  UNL1        0.0366
     29 C          58.6042   89.0492    6.7099 C.3     1  UNL1        0.2525
     30 O          58.4501   87.7315    7.4101 O.3     1  UNL1       -0.4714
@<TRIPOS>BOND
     1    29    30    1
     2    30    23    1
     3    23    24   ar
     4    24    25   ar
     5    25    26   ar
     6    26    22    1
     7    22     1    1
     8     1     2   ar
     9     2    10    1
    10    10    11    1
    11    11    12    1
    12    12    13    1
    13    13    14    1
    14    14    16    1
    15    16    17    1
    16    17    18    1
    17    18    19    1
    18    19    20    1
    19    20    21    1
    20    14    15    1
    21     2     3   ar
    22     3     4   ar
    23     4     5   ar
    24     5     6   ar
    25     6     7   ar
    26     7     8   ar
    27     8     9   ar
    28    26    27   ar
    29    27    28   ar
    30    28    23   ar
    31     9     1   ar
    32    15    10    1
    33     9     4   ar
    34    21    16    1
