@<TRIPOS>MOLECULE
*****
 33 36 0 0 0
SMALL
GASTEIGER

@<TRIPOS>ATOM
      1 C          63.5321   90.5124   15.1050 C.ar    1  UNL1        0.1746
      2 C          64.5573   91.1569   15.9902 C.ar    1  UNL1        0.0593
      3 C          65.6953   91.9239   15.3847 C.ar    1  UNL1        0.0890
      4 N          66.7205   92.5684   16.2699 N.ar    1  UNL1       -0.2238
      5 C          67.8584   93.3354   15.6643 C.ar    1  UNL1        0.2000
      6 N          67.9712   93.4579   14.1736 N.ar    1  UNL1       -0.2089
      7 C          66.9461   92.8134   13.2884 C.ar    1  UNL1        0.1355
      8 C          65.8081   92.0464   13.8939 C.ar    1  UNL1        0.0527
      9 C          64.7829   91.4018   13.0087 C.ar    1  UNL1        0.0451
     10 C          63.6449   90.6348   13.6142 C.ar    1  UNL1        0.1839
     11 C          62.6700   88.6350   16.6805 C.3     1  UNL1        0.2526
     12 O          62.3941   89.7453   15.7105 O.3     1  UNL1       -0.4683
     13 N          67.0589   92.9359   11.7977 N.pl3   1  UNL1       -0.2961
     14 H          67.3335   92.1587   11.2593 H       1  UNL1        0.1537
     15 C          66.7534   94.2425   11.1273 C.ar    1  UNL1        0.0780
     16 C          66.1339   95.3611   11.9115 C.ar    1  UNL1        0.0170
     17 C          65.8284   96.6677   11.2411 C.ar    1  UNL1        0.0023
     18 C          66.1424   96.8557    9.7864 C.ar    1  UNL1        0.0138
     19 C          66.7619   95.7372    9.0022 C.ar    1  UNL1        0.0863
     20 CL         67.0759   95.9252    7.5475 Cl      1  UNL1       -0.0799
     21 C          67.0674   94.4305    9.6726 C.ar    1  UNL1        0.1639
     22 F          67.6869   93.3120    8.8883 F       1  UNL1       -0.2020
     23 O          62.6197   89.9903   12.7290 O.3     1  UNL1       -0.4070
     24 C          62.7714   88.5525   12.3294 C.2     1  UNL1        0.4095
     25 O          63.7157   87.6610   13.0802 O.2     1  UNL1       -0.2258
     26 N          61.9789   88.0062   11.1790 N.am    1  UNL1       -0.2445
     27 C          62.1306   86.5684   10.7794 C.3     1  UNL1        0.1140
     28 C          61.3381   86.0221    9.6290 C.3     1  UNL1        0.0940
     29 N          60.3938   86.9136    8.8782 N.3     1  UNL1       -0.2686
     30 C          59.6013   86.3673    7.7278 C.3     1  UNL1        0.0897
     31 C          60.2421   88.3514    9.2778 C.3     1  UNL1        0.0923
     32 C          61.0347   88.8977   10.4283 C.3     1  UNL1        0.0946
     33 C          60.8830   90.3355   10.8279 C.3     1  UNL1        0.0231
@<TRIPOS>BOND
     1    11    12    1
     2    12     1    1
     3     1     2   ar
     4     2     3   ar
     5     3     4   ar
     6     4     5   ar
     7     5     6   ar
     8     6     7   ar
     9     7    13    1
    10    13    15    1
    11    15    16   ar
    12    16    17   ar
    13    17    18   ar
    14    18    19   ar
    15    19    20    1
    16    19    21   ar
    17    21    22    1
    18     7     8   ar
    19     8     9   ar
    20     9    10   ar
    21    10    23    1
    22    23    24    1
    23    24    25    2
    24    24    26   am
    25    26    27    1
    26    27    28    1
    27    28    29    1
    28    29    30    1
    29    29    31    1
    30    31    32    1
    31    32    33    1
    32    10     1   ar
    33    32    26    1
    34     8     3   ar
    35    21    15   ar
    36    13    14    1
@<TRIPOS>MOLECULE
*****
 33 36 0 0 0
SMALL
GASTEIGER

@<TRIPOS>ATOM
      1 C          60.5694   89.5962   10.1223 C.ar    1  UNL1        0.1746
      2 C          59.9383   88.7998    9.0189 C.ar    1  UNL1        0.0593
      3 C          60.5176   87.4731    8.6256 C.ar    1  UNL1        0.0890
      4 N          59.8865   86.6767    7.5222 N.ar    1  UNL1       -0.2238
      5 C          60.4657   85.3502    7.1290 C.ar    1  UNL1        0.2000
      6 N          61.6760   84.8200    7.8390 N.ar    1  UNL1       -0.2089
      7 C          62.3070   85.6165    8.9424 C.ar    1  UNL1        0.1355
      8 C          61.7278   86.9430    9.3357 C.ar    1  UNL1        0.0527
      9 C          62.3589   87.7395   10.4391 C.ar    1  UNL1        0.0451
     10 C          61.7796   89.0661   10.8324 C.ar    1  UNL1        0.1839
     11 C          59.0106   91.0073   11.6484 C.3     1  UNL1        0.2526
     12 O          59.9902   90.9228   10.5156 O.3     1  UNL1       -0.4683
     13 N          63.5173   85.0863    9.6525 N.pl3   1  UNL1       -0.2961
     14 H          64.4060   85.4630    9.4588 H       1  UNL1        0.1537
     15 C          63.3735   83.9823   10.6576 C.ar    1  UNL1        0.0780
     16 C          63.5673   82.5554   10.2373 C.ar    1  UNL1        0.0170
     17 C          63.4235   81.4513   11.2424 C.ar    1  UNL1        0.0023
     18 C          63.0860   81.7740   12.6679 C.ar    1  UNL1        0.0138
     19 C          62.8922   83.2008   13.0882 C.ar    1  UNL1        0.0863
     20 CL         62.5546   83.5235   14.5136 Cl      1  UNL1       -0.0799
     21 C          63.0359   84.3049   12.0831 C.ar    1  UNL1        0.1639
     22 F          62.8421   85.7317   12.5034 F       1  UNL1       -0.2020
     23 O          62.4107   89.8626   11.9358 O.3     1  UNL1       -0.4070
     24 C          63.3759   90.9632   11.6088 C.2     1  UNL1        0.4095
     25 O          63.3955   91.5593   10.2325 O.2     1  UNL1       -0.2258
     26 N          64.3216   91.4677   12.6582 N.am    1  UNL1       -0.2445
     27 C          65.2869   92.5683   12.3312 C.3     1  UNL1        0.1140
     28 C          66.2325   93.0728   13.3805 C.3     1  UNL1        0.0940
     29 N          66.2130   92.4767   14.7569 N.3     1  UNL1       -0.2686
     30 C          67.1586   92.9812   15.8062 C.3     1  UNL1        0.0897
     31 C          65.2477   91.3761   15.0839 C.3     1  UNL1        0.0923
     32 C          64.3020   90.8716   14.0345 C.3     1  UNL1        0.0946
     33 C          63.3368   89.7709   14.3614 C.3     1  UNL1        0.0231
@<TRIPOS>BOND
     1    11    12    1
     2    12     1    1
     3     1     2   ar
     4     2     3   ar
     5     3     4   ar
     6     4     5   ar
     7     5     6   ar
     8     6     7   ar
     9     7    13    1
    10    13    15    1
    11    15    16   ar
    12    16    17   ar
    13    17    18   ar
    14    18    19   ar
    15    19    20    1
    16    19    21   ar
    17    21    22    1
    18     7     8   ar
    19     8     9   ar
    20     9    10   ar
    21    10    23    1
    22    23    24    1
    23    24    25    2
    24    24    26   am
    25    26    27    1
    26    27    28    1
    27    28    29    1
    28    29    30    1
    29    29    31    1
    30    31    32    1
    31    32    33    1
    32    10     1   ar
    33    32    26    1
    34     8     3   ar
    35    21    15   ar
    36    13    14    1
@<TRIPOS>MOLECULE
*****
 33 36 0 0 0
SMALL
GASTEIGER

@<TRIPOS>ATOM
      1 C          64.2472   89.2154   14.5657 C.ar    1  UNL1        0.1746
      2 C          65.2343   90.0372   15.3403 C.ar    1  UNL1        0.0593
      3 C          65.7412   91.3307   14.7745 C.ar    1  UNL1        0.0890
      4 N          66.7283   92.1525   15.5492 N.ar    1  UNL1       -0.2238
      5 C          67.2352   93.4459   14.9834 C.ar    1  UNL1        0.2000
      6 N          66.7549   93.9175   13.6429 N.ar    1  UNL1       -0.2089
      7 C          65.7678   93.0957   12.8682 C.ar    1  UNL1        0.1355
      8 C          65.2610   91.8023   13.4340 C.ar    1  UNL1        0.0527
      9 C          64.2738   90.9804   12.6593 C.ar    1  UNL1        0.0451
     10 C          63.7669   89.6870   13.2252 C.ar    1  UNL1        0.1839
     11 C          64.5123   86.6544   14.9139 C.3     1  UNL1        0.2526
     12 O          63.7403   87.9219   15.1315 O.3     1  UNL1       -0.4683
     13 N          65.2875   93.5672   11.5277 N.pl3   1  UNL1       -0.2961
     14 H          64.3258   93.7072   11.3707 H       1  UNL1        0.1537
     15 C          66.2726   93.8256   10.4264 C.ar    1  UNL1        0.0780
     16 C          67.2581   92.7637   10.0372 C.ar    1  UNL1        0.0170
     17 C          68.2431   93.0221    8.9359 C.ar    1  UNL1        0.0023
     18 C          68.2428   94.3423    8.2238 C.ar    1  UNL1        0.0138
     19 C          67.2574   95.4041    8.6130 C.ar    1  UNL1        0.0863
     20 CL         67.2571   96.7243    7.9009 Cl      1  UNL1       -0.0799
     21 C          66.2723   95.1458    9.7143 C.ar    1  UNL1        0.1639
     22 F          65.2869   96.2076   10.1035 F       1  UNL1       -0.2020
     23 O          62.7798   88.8651   12.4505 O.3     1  UNL1       -0.4070
     24 C          61.9251   89.5119   11.4011 C.2     1  UNL1        0.4095
     25 O          61.7400   91.0005   11.3974 O.2     1  UNL1       -0.2258
     26 N          61.2556   88.6703   10.3555 N.am    1  UNL1       -0.2445
     27 C          60.4010   89.3171    9.3061 C.3     1  UNL1        0.1140
     28 C          59.7315   88.4754    8.2605 C.3     1  UNL1        0.0940
     29 N          59.9166   86.9869    8.2642 N.3     1  UNL1       -0.2686
     30 C          59.2472   86.1452    7.2186 C.3     1  UNL1        0.0897
     31 C          60.7713   86.3400    9.3136 C.3     1  UNL1        0.0923
     32 C          61.4408   87.1818   10.3592 C.3     1  UNL1        0.0946
     33 C          62.2955   86.5349   11.4086 C.3     1  UNL1        0.0231
@<TRIPOS>BOND
     1    11    12    1
     2    12     1    1
     3     1     2   ar
     4     2     3   ar
     5     3     4   ar
     6     4     5   ar
     7     5     6   ar
     8     6     7   ar
     9     7    13    1
    10    13    15    1
    11    15    16   ar
    12    16    17   ar
    13    17    18   ar
    14    18    19   ar
    15    19    20    1
    16    19    21   ar
    17    21    22    1
    18     7     8   ar
    19     8     9   ar
    20     9    10   ar
    21    10    23    1
    22    23    24    1
    23    24    25    2
    24    24    26   am
    25    26    27    1
    26    27    28    1
    27    28    29    1
    28    29    30    1
    29    29    31    1
    30    31    32    1
    31    32    33    1
    32    10     1   ar
    33    32    26    1
    34     8     3   ar
    35    21    15   ar
    36    13    14    1
@<TRIPOS>MOLECULE
*****
 33 36 0 0 0
SMALL
GASTEIGER

@<TRIPOS>ATOM
      1 C          61.2006   87.2862   10.3546 C.ar    1  UNL1        0.1746
      2 C          61.3605   85.8121   10.1281 C.ar    1  UNL1        0.0593
      3 C          62.2695   85.0116   11.0130 C.ar    1  UNL1        0.0890
      4 N          62.4294   83.5374   10.7866 N.ar    1  UNL1       -0.2238
      5 C          63.3384   82.7370   11.6714 C.ar    1  UNL1        0.2000
      6 N          64.0875   83.4107   12.7827 N.ar    1  UNL1       -0.2089
      7 C          63.9276   84.8848   13.0092 C.ar    1  UNL1        0.1355
      8 C          63.0186   85.6852   12.1243 C.ar    1  UNL1        0.0527
      9 C          62.8587   87.1595   12.3508 C.ar    1  UNL1        0.0451
     10 C          61.9497   87.9599   11.4659 C.ar    1  UNL1        0.1839
     11 C          59.4366   87.3943    8.4502 C.3     1  UNL1        0.2526
     12 O          60.2916   88.0867    9.4697 O.3     1  UNL1       -0.4683
     13 N          64.6767   85.5585   14.1205 N.pl3   1  UNL1       -0.2961
     14 H          65.6562   85.6452   14.0721 H       1  UNL1        0.1537
     15 C          63.9334   86.1001   15.3055 C.ar    1  UNL1        0.0780
     16 C          63.1239   85.1781   16.1685 C.ar    1  UNL1        0.0170
     17 C          62.3807   85.7197   17.3535 C.ar    1  UNL1        0.0023
     18 C          62.4469   87.1832   17.6755 C.ar    1  UNL1        0.0138
     19 C          63.2564   88.1051   16.8126 C.ar    1  UNL1        0.0863
     20 CL         63.3226   89.5687   17.1347 Cl      1  UNL1       -0.0799
     21 C          63.9997   87.5636   15.6275 C.ar    1  UNL1        0.1639
     22 F          64.8091   88.4856   14.7646 F       1  UNL1       -0.2020
     23 O          61.7897   89.4341   11.6924 O.3     1  UNL1       -0.4070
     24 C          62.6171   90.1270   12.7342 C.2     1  UNL1        0.4095
     25 O          62.3936   89.8318   14.1878 O.2     1  UNL1       -0.2258
     26 N          63.6680   91.1149   12.3224 N.am    1  UNL1       -0.2445
     27 C          64.4954   91.8078   13.3643 C.3     1  UNL1        0.1140
     28 C          65.5462   92.7957   12.9525 C.3     1  UNL1        0.0940
     29 N          65.7698   93.0909   11.4989 N.3     1  UNL1       -0.2686
     30 C          66.8206   94.0788   11.0871 C.3     1  UNL1        0.0897
     31 C          64.9424   92.3980   10.4570 C.3     1  UNL1        0.0923
     32 C          63.8915   91.4100   10.8689 C.3     1  UNL1        0.0946
     33 C          63.0641   90.7171    9.8270 C.3     1  UNL1        0.0231
@<TRIPOS>BOND
     1    11    12    1
     2    12     1    1
     3     1     2   ar
     4     2     3   ar
     5     3     4   ar
     6     4     5   ar
     7     5     6   ar
     8     6     7   ar
     9     7    13    1
    10    13    15    1
    11    15    16   ar
    12    16    17   ar
    13    17    18   ar
    14    18    19   ar
    15    19    20    1
    16    19    21   ar
    17    21    22    1
    18     7     8   ar
    19     8     9   ar
    20     9    10   ar
    21    10    23    1
    22    23    24    1
    23    24    25    2
    24    24    26   am
    25    26    27    1
    26    27    28    1
    27    28    29    1
    28    29    30    1
    29    29    31    1
    30    31    32    1
    31    32    33    1
    32    10     1   ar
    33    32    26    1
    34     8     3   ar
    35    21    15   ar
    36    13    14    1
@<TRIPOS>MOLECULE
*****
 33 36 0 0 0
SMALL
GASTEIGER

@<TRIPOS>ATOM
      1 C          61.6673   88.2140   10.3646 C.ar    1  UNL1        0.1746
      2 C          61.5953   86.7850    9.9144 C.ar    1  UNL1        0.0593
      3 C          62.2832   85.7133   10.7072 C.ar    1  UNL1        0.0890
      4 N          62.2111   84.2843   10.2571 N.ar    1  UNL1       -0.2238
      5 C          62.8990   83.2128   11.0498 C.ar    1  UNL1        0.2000
      6 N          63.6589   83.5702   12.2927 N.ar    1  UNL1       -0.2089
      7 C          63.7310   84.9992   12.7428 C.ar    1  UNL1        0.1355
      8 C          63.0431   86.0708   11.9501 C.ar    1  UNL1        0.0527
      9 C          63.1151   87.4999   12.4002 C.ar    1  UNL1        0.0451
     10 C          62.4272   88.5715   11.6075 C.ar    1  UNL1        0.1839
     11 C          59.9134   90.1247   10.2119 C.3     1  UNL1        0.2526
     12 O          60.9794   89.2857    9.5718 O.3     1  UNL1       -0.4683
     13 N          64.4909   85.3567   13.9857 N.pl3   1  UNL1       -0.2961
     14 H          65.4732   85.2928   13.9975 H       1  UNL1        0.1537
     15 C          63.7541   85.8113   15.2106 C.ar    1  UNL1        0.0780
     16 C          62.8727   84.8524   15.9548 C.ar    1  UNL1        0.0170
     17 C          62.1359   85.3071   17.1797 C.ar    1  UNL1        0.0023
     18 C          62.2804   86.7206   17.6604 C.ar    1  UNL1        0.0138
     19 C          63.1618   87.6795   16.9163 C.ar    1  UNL1        0.0863
     20 CL         63.3063   89.0930   17.3970 Cl      1  UNL1       -0.0799
     21 C          63.8986   87.2248   15.6913 C.ar    1  UNL1        0.1639
     22 F          64.7799   88.1837   14.9472 F       1  UNL1       -0.2020
     23 O          62.4992   90.0006   12.0576 O.3     1  UNL1       -0.4070
     24 C          63.5101   90.9280   11.4509 C.2     1  UNL1        0.4095
     25 O          63.5162   91.1653    9.9697 O.2     1  UNL1       -0.2258
     26 N          64.5147   91.6180   12.3252 N.am    1  UNL1       -0.2445
     27 C          65.5256   92.5454   11.7184 C.3     1  UNL1        0.1140
     28 C          66.5302   93.2354   12.5927 C.3     1  UNL1        0.0940
     29 N          66.5240   92.9981   14.0739 N.3     1  UNL1       -0.2686
     30 C          67.5287   93.6882   14.9482 C.3     1  UNL1        0.0897
     31 C          65.5132   92.0708   14.6806 C.3     1  UNL1        0.0923
     32 C          64.5085   91.3807   13.8062 C.3     1  UNL1        0.0946
     33 C          63.4976   90.4533   14.4130 C.3     1  UNL1        0.0231
@<TRIPOS>BOND
     1    11    12    1
     2    12     1    1
     3     1     2   ar
     4     2     3   ar
     5     3     4   ar
     6     4     5   ar
     7     5     6   ar
     8     6     7   ar
     9     7    13    1
    10    13    15    1
    11    15    16   ar
    12    16    17   ar
    13    17    18   ar
    14    18    19   ar
    15    19    20    1
    16    19    21   ar
    17    21    22    1
    18     7     8   ar
    19     8     9   ar
    20     9    10   ar
    21    10    23    1
    22    23    24    1
    23    24    25    2
    24    24    26   am
    25    26    27    1
    26    27    28    1
    27    28    29    1
    28    29    30    1
    29    29    31    1
    30    31    32    1
    31    32    33    1
    32    10     1   ar
    33    32    26    1
    34     8     3   ar
    35    21    15   ar
    36    13    14    1
@<TRIPOS>MOLECULE
*****
 33 36 0 0 0
SMALL
GASTEIGER

@<TRIPOS>ATOM
      1 C          64.0266   90.1514   15.1309 C.ar    1  UNL1        0.1746
      2 C          63.9001   91.1242   13.9962 C.ar    1  UNL1        0.0593
      3 C          63.4743   90.6439   12.6405 C.ar    1  UNL1        0.0890
      4 N          63.3477   91.6167   11.5058 N.ar    1  UNL1       -0.2238
      5 C          62.9219   91.1364   10.1501 C.ar    1  UNL1        0.2000
      6 N          62.6227   89.6832    9.9291 N.ar    1  UNL1       -0.2089
      7 C          62.7492   88.7104   11.0638 C.ar    1  UNL1        0.1355
      8 C          63.1750   89.1907   12.4195 C.ar    1  UNL1        0.0527
      9 C          63.3016   88.2179   13.5542 C.ar    1  UNL1        0.0451
     10 C          63.7274   88.6982   14.9099 C.ar    1  UNL1        0.1839
     11 C          64.6961   92.0928   16.7223 C.3     1  UNL1        0.2526
     12 O          64.4525   90.6317   16.4867 O.3     1  UNL1       -0.4683
     13 N          62.4499   87.2573   10.8428 N.pl3   1  UNL1       -0.2961
     14 H          62.8228   86.5797   11.4520 H       1  UNL1        0.1537
     15 C          61.5826   86.8365    9.6936 C.ar    1  UNL1        0.0780
     16 C          60.1643   87.3176    9.6089 C.ar    1  UNL1        0.0170
     17 C          59.2970   86.8968    8.4597 C.ar    1  UNL1        0.0023
     18 C          59.8478   85.9949    7.3953 C.ar    1  UNL1        0.0138
     19 C          61.2660   85.5138    7.4799 C.ar    1  UNL1        0.0863
     20 CL         61.8169   84.6119    6.4154 Cl      1  UNL1       -0.0799
     21 C          62.1335   85.9346    8.6291 C.ar    1  UNL1        0.1639
     22 F          63.5516   85.4535    8.7138 F       1  UNL1       -0.2020
     23 O          63.8539   87.7254   16.0447 O.3     1  UNL1       -0.4070
     24 C          62.8452   86.6272   16.2071 C.2     1  UNL1        0.4095
     25 O          61.5824   86.8766   16.9773 O.2     1  UNL1       -0.2258
     26 N          63.0992   85.2796   15.5993 N.am    1  UNL1       -0.2445
     27 C          62.0905   84.1814   15.7617 C.3     1  UNL1        0.1140
     28 C          62.3445   82.8338   15.1540 C.3     1  UNL1        0.0940
     29 N          63.6073   82.5844   14.3837 N.3     1  UNL1       -0.2686
     30 C          63.8614   81.2368   13.7760 C.3     1  UNL1        0.0897
     31 C          64.6161   83.6826   14.2214 C.3     1  UNL1        0.0923
     32 C          64.3620   85.0302   14.8292 C.3     1  UNL1        0.0946
     33 C          65.3707   86.1285   14.6668 C.3     1  UNL1        0.0231
@<TRIPOS>BOND
     1    11    12    1
     2    12     1    1
     3     1     2   ar
     4     2     3   ar
     5     3     4   ar
     6     4     5   ar
     7     5     6   ar
     8     6     7   ar
     9     7    13    1
    10    13    15    1
    11    15    16   ar
    12    16    17   ar
    13    17    18   ar
    14    18    19   ar
    15    19    20    1
    16    19    21   ar
    17    21    22    1
    18     7     8   ar
    19     8     9   ar
    20     9    10   ar
    21    10    23    1
    22    23    24    1
    23    24    25    2
    24    24    26   am
    25    26    27    1
    26    27    28    1
    27    28    29    1
    28    29    30    1
    29    29    31    1
    30    31    32    1
    31    32    33    1
    32    10     1   ar
    33    32    26    1
    34     8     3   ar
    35    21    15   ar
    36    13    14    1
@<TRIPOS>MOLECULE
*****
 33 36 0 0 0
SMALL
GASTEIGER

@<TRIPOS>ATOM
      1 C          64.8404   90.4172   14.4167 C.ar    1  UNL1        0.1746
      2 C          64.6426   91.2873   13.2110 C.ar    1  UNL1        0.0593
      3 C          63.7691   90.8206   12.0844 C.ar    1  UNL1        0.0890
      4 N          63.5714   91.6907   10.8787 N.ar    1  UNL1       -0.2238
      5 C          62.6979   91.2239    9.7521 C.ar    1  UNL1        0.2000
      6 N          62.0222   89.8871    9.8313 N.ar    1  UNL1       -0.2089
      7 C          62.2199   89.0170   11.0371 C.ar    1  UNL1        0.1355
      8 C          63.0934   89.4838   12.1636 C.ar    1  UNL1        0.0527
      9 C          63.2911   88.6137   13.3694 C.ar    1  UNL1        0.0451
     10 C          64.1646   89.0804   14.4959 C.ar    1  UNL1        0.1839
     11 C          66.1435   92.3194   15.6142 C.3     1  UNL1        0.2526
     12 O          65.7139   90.8840   15.5434 O.3     1  UNL1       -0.4683
     13 N          61.5441   87.6802   11.1163 N.pl3   1  UNL1       -0.2961
     14 H          60.7013   87.5835   11.6159 H       1  UNL1        0.1537
     15 C          62.1524   86.4908   10.4342 C.ar    1  UNL1        0.0780
     16 C          62.4407   86.5361    8.9628 C.ar    1  UNL1        0.0170
     17 C          63.0489   85.3466    8.2808 C.ar    1  UNL1        0.0023
     18 C          63.3689   84.1119    9.0701 C.ar    1  UNL1        0.0138
     19 C          63.0806   84.0665   10.5414 C.ar    1  UNL1        0.0863
     20 CL         63.4006   82.8318   11.3306 Cl      1  UNL1       -0.0799
     21 C          62.4723   85.2560   11.2235 C.ar    1  UNL1        0.1639
     22 F          62.1841   85.2107   12.6948 F       1  UNL1       -0.2020
     23 O          64.3624   88.2103   15.7018 O.3     1  UNL1       -0.4070
     24 C          63.2879   87.2501   16.1180 C.2     1  UNL1        0.4095
     25 O          62.1263   87.7326   16.9354 O.2     1  UNL1       -0.2258
     26 N          63.3749   85.8073   15.7170 N.am    1  UNL1       -0.2445
     27 C          62.3004   84.8470   16.1333 C.3     1  UNL1        0.1140
     28 C          62.3874   83.4043   15.7322 C.3     1  UNL1        0.0940
     29 N          63.5490   82.9218   14.9149 N.3     1  UNL1       -0.2686
     30 C          63.6360   81.4790   14.5138 C.3     1  UNL1        0.0897
     31 C          64.6235   83.8821   14.4986 C.3     1  UNL1        0.0923
     32 C          64.5364   85.3249   14.8997 C.3     1  UNL1        0.0946
     33 C          65.6109   86.2852   14.4834 C.3     1  UNL1        0.0231
@<TRIPOS>BOND
     1    11    12    1
     2    12     1    1
     3     1     2   ar
     4     2     3   ar
     5     3     4   ar
     6     4     5   ar
     7     5     6   ar
     8     6     7   ar
     9     7    13    1
    10    13    15    1
    11    15    16   ar
    12    16    17   ar
    13    17    18   ar
    14    18    19   ar
    15    19    20    1
    16    19    21   ar
    17    21    22    1
    18     7     8   ar
    19     8     9   ar
    20     9    10   ar
    21    10    23    1
    22    23    24    1
    23    24    25    2
    24    24    26   am
    25    26    27    1
    26    27    28    1
    27    28    29    1
    28    29    30    1
    29    29    31    1
    30    31    32    1
    31    32    33    1
    32    10     1   ar
    33    32    26    1
    34     8     3   ar
    35    21    15   ar
    36    13    14    1
