@<TRIPOS>MOLECULE
*****
 31 35 0 0 0
SMALL
GASTEIGER

@<TRIPOS>ATOM
      1 C          62.2331   88.8672   11.3822 C.3     1  UNL1        0.0182
      2 C          63.1338   89.6603   12.2820 C.3     1  UNL1        0.0053
      3 C          64.0758   90.6326   12.9278 C.3     1  UNL1        0.0436
      4 C          64.4617   91.6558   11.9010 C.3     1  UNL1        0.1659
      5 C          63.7582   91.3158   10.6206 C.3     1  UNL1        0.0436
      6 C          62.9375   90.0825   10.8560 C.3     1  UNL1        0.0053
      7 C          61.3064   87.7075   11.1663 C.3     1  UNL1        0.0718
      8 N          61.5624   86.4033   11.8616 N.am    1  UNL1       -0.3025
      9 C          62.2866   85.3016   11.1462 C.2     1  UNL1        0.2458
     10 O          62.7546   85.5042    9.7355 O.2     1  UNL1       -0.2701
     11 H          61.2552   86.2704   12.7874 H       1  UNL1        0.1497
     12 C          62.5427   83.9973   11.8414 C.ar    1  UNL1        0.0534
     13 C          62.4187   83.9057   13.3334 C.ar    1  UNL1        0.0054
     14 C          62.6749   82.6014   14.0286 C.ar    1  UNL1        0.0115
     15 C          63.0549   81.3888   13.2317 C.ar    1  UNL1        0.0577
     16 CL         63.3110   80.0845   13.9269 Cl      1  UNL1       -0.0822
     17 C          63.1789   81.4804   11.7396 C.ar    1  UNL1        0.0115
     18 C          62.9228   82.7847   11.0445 C.ar    1  UNL1        0.0054
     19 C          60.2929   88.4690    8.8985 C.3     1  UNL1        0.0017
     20 C          60.1236   87.8522   10.2553 C.3     1  UNL1        0.0196
     21 O          65.3884   92.8154   12.1168 O.3     1  UNL1       -0.4791
     22 C          66.4996   93.0786   11.1441 C.ar    1  UNL1        0.1413
     23 C          67.6111   92.0835   10.9881 C.ar    1  UNL1        0.0575
     24 C          68.7222   92.3467   10.0154 C.ar    1  UNL1        0.1019
     25 N          68.7219   93.6049    9.1988 N.ar    1  UNL1       -0.2436
     26 C          67.6103   94.6000    9.3548 C.ar    1  UNL1        0.0842
     27 C          67.6099   95.8582    8.5382 C.ar    1  UNL1        0.0192
     28 C          66.4984   96.8532    8.6943 C.ar    1  UNL1        0.0015
     29 C          65.3873   96.5901    9.6670 C.ar    1  UNL1        0.0002
     30 C          65.3876   95.3319   10.4836 C.ar    1  UNL1        0.0045
     31 C          66.4992   94.3369   10.3275 C.ar    1  UNL1        0.0516
@<TRIPOS>BOND
     1    19    20    1
     2    20     7    1
     3     7     8    1
     4     8     9   am
     5     9    10    2
     6     9    12    1
     7    12    13   ar
     8    13    14   ar
     9    14    15   ar
    10    15    16    1
    11    15    17   ar
    12    17    18   ar
    13     1     7    1
    14     1     2    1
    15     2     3    1
    16     3     4    1
    17     4    21    1
    18    21    22    1
    19    22    23   ar
    20    23    24   ar
    21    24    25   ar
    22    25    26   ar
    23    26    27   ar
    24    27    28   ar
    25    28    29   ar
    26    29    30   ar
    27    30    31   ar
    28     4     5    1
    29     6     5    1
    30    18    12   ar
    31     6     1    1
    32     6     2    1
    33    31    22   ar
    34    31    26   ar
    35     8    11    1
@<TRIPOS>MOLECULE
*****
 31 35 0 0 0
SMALL
GASTEIGER

@<TRIPOS>ATOM
      1 C          64.1474   88.4338   14.3702 C.3     1  UNL1        0.0182
      2 C          63.9121   89.5435   13.3887 C.3     1  UNL1        0.0053
      3 C          63.9159   90.7911   12.5560 C.3     1  UNL1        0.0436
      4 C          65.0106   91.6829   13.0622 C.3     1  UNL1        0.1659
      5 C          65.6834   90.9865   14.2077 C.3     1  UNL1        0.0436
      6 C          65.0045   89.6642   14.4096 C.3     1  UNL1        0.0053
      7 C          63.7885   87.0827   14.9141 C.3     1  UNL1        0.0718
      8 N          63.4281   85.9684   13.9768 N.am    1  UNL1       -0.3025
      9 C          64.3476   84.7938   13.8195 C.2     1  UNL1        0.2458
     10 O          65.6275   84.7335   14.5993 O.2     1  UNL1       -0.2701
     11 H          62.5881   86.0080   13.4650 H       1  UNL1        0.1497
     12 C          63.9872   83.6795   12.8822 C.ar    1  UNL1        0.0534
     13 C          64.4335   83.7294   11.4510 C.ar    1  UNL1        0.0054
     14 C          64.0731   82.6150   10.5137 C.ar    1  UNL1        0.0115
     15 C          63.2665   81.4508   11.0077 C.ar    1  UNL1        0.0577
     16 CL         62.9061   80.3365   10.0705 Cl      1  UNL1       -0.0822
     17 C          62.8202   81.4010   12.4389 C.ar    1  UNL1        0.0115
     18 C          63.1806   82.5153   13.3761 C.ar    1  UNL1        0.0054
     19 C          62.7375   87.4781   17.2569 C.3     1  UNL1        0.0017
     20 C          63.7900   86.8459   16.3953 C.3     1  UNL1        0.0196
     21 O          65.3696   93.0339   12.5183 O.3     1  UNL1       -0.4791
     22 C          66.3945   93.1562   11.4299 C.ar    1  UNL1        0.1413
     23 C          67.3759   92.0463   11.1958 C.ar    1  UNL1        0.0575
     24 C          68.4008   92.1686   10.1074 C.ar    1  UNL1        0.1019
     25 N          68.4443   93.4007    9.2531 N.ar    1  UNL1       -0.2436
     26 C          67.4628   94.5107    9.4872 C.ar    1  UNL1        0.0842
     27 C          67.5062   95.7428    8.6329 C.ar    1  UNL1        0.0192
     28 C          66.5247   96.8527    8.8670 C.ar    1  UNL1        0.0015
     29 C          65.4998   96.7304    9.9554 C.ar    1  UNL1        0.0002
     30 C          65.4564   95.4983   10.8097 C.ar    1  UNL1        0.0045
     31 C          66.4379   94.3884   10.5756 C.ar    1  UNL1        0.0516
@<TRIPOS>BOND
     1    19    20    1
     2    20     7    1
     3     7     8    1
     4     8     9   am
     5     9    10    2
     6     9    12    1
     7    12    13   ar
     8    13    14   ar
     9    14    15   ar
    10    15    16    1
    11    15    17   ar
    12    17    18   ar
    13     1     7    1
    14     1     2    1
    15     2     3    1
    16     3     4    1
    17     4    21    1
    18    21    22    1
    19    22    23   ar
    20    23    24   ar
    21    24    25   ar
    22    25    26   ar
    23    26    27   ar
    24    27    28   ar
    25    28    29   ar
    26    29    30   ar
    27    30    31   ar
    28     4     5    1
    29     6     5    1
    30    18    12   ar
    31     6     1    1
    32     6     2    1
    33    31    22   ar
    34    31    26   ar
    35     8    11    1
@<TRIPOS>MOLECULE
*****
 31 35 0 0 0
SMALL
GASTEIGER

@<TRIPOS>ATOM
      1 C          64.8043   90.2911   14.1189 C.3     1  UNL1        0.0182
      2 C          64.6380   88.8659   14.5559 C.3     1  UNL1        0.0053
      3 C          64.2922   87.4176   14.7369 C.3     1  UNL1        0.0436
      4 C          63.3987   87.0092   13.6034 C.3     1  UNL1        0.1659
      5 C          63.1923   88.2051   12.7218 C.3     1  UNL1        0.0436
      6 C          63.9582   89.3526   13.3105 C.3     1  UNL1        0.0053
      7 C          65.3888   91.6559   14.3332 C.3     1  UNL1        0.0718
      8 N          65.4814   92.6204   13.1882 N.am    1  UNL1       -0.3025
      9 C          66.7459   92.7139   12.3867 C.2     1  UNL1        0.2458
     10 O          67.9177   91.8429   12.7303 O.2     1  UNL1       -0.2701
     11 H          64.7123   93.1921   12.9626 H       1  UNL1        0.1497
     12 C          66.8385   93.6784   11.2416 C.ar    1  UNL1        0.0534
     13 C          67.4974   93.2606    9.9605 C.ar    1  UNL1        0.0054
     14 C          67.5900   94.2251    8.8154 C.ar    1  UNL1        0.0115
     15 C          67.0238   95.6075    8.9515 C.ar    1  UNL1        0.0577
     16 CL         67.1164   96.5720    7.8065 Cl      1  UNL1       -0.0822
     17 C          66.3649   96.0252   10.2327 C.ar    1  UNL1        0.0115
     18 C          66.2723   95.0607   11.3777 C.ar    1  UNL1        0.0054
     19 C          67.1987   92.7574   15.8368 C.3     1  UNL1        0.0017
     20 C          65.8807   92.0561   15.6926 C.3     1  UNL1        0.0196
     21 O          62.8142   85.6445   13.3890 O.3     1  UNL1       -0.4791
     22 C          63.3339   84.7708   12.2861 C.ar    1  UNL1        0.1413
     23 C          64.2524   83.6283   12.6039 C.ar    1  UNL1        0.0575
     24 C          64.7721   82.7546   11.5010 C.ar    1  UNL1        0.1019
     25 N          64.3733   83.0233   10.0802 N.ar    1  UNL1       -0.2436
     26 C          63.4548   84.1659    9.7622 C.ar    1  UNL1        0.0842
     27 C          63.0560   84.4346    8.3414 C.ar    1  UNL1        0.0192
     28 C          62.1376   85.5771    8.0236 C.ar    1  UNL1        0.0015
     29 C          61.6178   86.4509    9.1265 C.ar    1  UNL1        0.0002
     30 C          62.0166   86.1821   10.5473 C.ar    1  UNL1        0.0045
     31 C          62.9351   85.0396   10.8652 C.ar    1  UNL1        0.0516
@<TRIPOS>BOND
     1    19    20    1
     2    20     7    1
     3     7     8    1
     4     8     9   am
     5     9    10    2
     6     9    12    1
     7    12    13   ar
     8    13    14   ar
     9    14    15   ar
    10    15    16    1
    11    15    17   ar
    12    17    18   ar
    13     1     7    1
    14     1     2    1
    15     2     3    1
    16     3     4    1
    17     4    21    1
    18    21    22    1
    19    22    23   ar
    20    23    24   ar
    21    24    25   ar
    22    25    26   ar
    23    26    27   ar
    24    27    28   ar
    25    28    29   ar
    26    29    30   ar
    27    30    31   ar
    28     4     5    1
    29     6     5    1
    30    18    12   ar
    31     6     1    1
    32     6     2    1
    33    31    22   ar
    34    31    26   ar
    35     8    11    1
@<TRIPOS>MOLECULE
*****
 31 35 0 0 0
SMALL
GASTEIGER

@<TRIPOS>ATOM
      1 C          61.8871   88.4842   10.9303 C.3     1  UNL1        0.0182
      2 C          62.7663   89.2728   11.8550 C.3     1  UNL1        0.0053
      3 C          63.6676   90.2588   12.5372 C.3     1  UNL1        0.0436
      4 C          63.9574   91.3682   11.5700 C.3     1  UNL1        0.1659
      5 C          63.2351   91.0678   10.2902 C.3     1  UNL1        0.0436
      6 C          62.4990   89.7728   10.4663 C.3     1  UNL1        0.0053
      7 C          61.0262   87.2849   10.6642 C.3     1  UNL1        0.0718
      8 N          61.2548   86.0136   11.4267 N.am    1  UNL1       -0.3025
      9 C          62.2835   85.0299   10.9534 C.2     1  UNL1        0.2458
     10 O          63.0836   85.3175    9.7177 O.2     1  UNL1       -0.2701
     11 H          60.7296   85.8248   12.2377 H       1  UNL1        0.1497
     12 C          62.5120   83.7584   11.7159 C.ar    1  UNL1        0.0534
     13 C          62.7705   82.4779   10.9788 C.ar    1  UNL1        0.0054
     14 C          62.9991   81.2065   11.7413 C.ar    1  UNL1        0.0115
     15 C          62.9692   81.2157   13.2409 C.ar    1  UNL1        0.0577
     16 CL         63.1978   79.9444   14.0034 Cl      1  UNL1       -0.0822
     17 C          62.7107   82.4963   13.9781 C.ar    1  UNL1        0.0115
     18 C          62.4821   83.7676   13.2156 C.ar    1  UNL1        0.0054
     19 C          60.0762   86.6109    8.3419 C.3     1  UNL1        0.0017
     20 C          59.9368   87.3571    9.6356 C.3     1  UNL1        0.0196
     21 O          64.8182   92.5674   11.8361 O.3     1  UNL1       -0.4791
     22 C          66.2794   92.3922   12.1263 C.ar    1  UNL1        0.1413
     23 C          67.2493   92.1933   10.9994 C.ar    1  UNL1        0.0575
     24 C          68.7105   92.0181   11.2896 C.ar    1  UNL1        0.1019
     25 N          69.2018   92.0419   12.7067 N.ar    1  UNL1       -0.2436
     26 C          68.2319   92.2409   13.8336 C.ar    1  UNL1        0.0842
     27 C          68.7233   92.2648   15.2506 C.ar    1  UNL1        0.0192
     28 C          67.7534   92.4638   16.3774 C.ar    1  UNL1        0.0015
     29 C          66.2922   92.6389   16.0872 C.ar    1  UNL1        0.0002
     30 C          65.8009   92.6151   14.6702 C.ar    1  UNL1        0.0045
     31 C          66.7707   92.4161   13.5434 C.ar    1  UNL1        0.0516
@<TRIPOS>BOND
     1    19    20    1
     2    20     7    1
     3     7     8    1
     4     8     9   am
     5     9    10    2
     6     9    12    1
     7    12    13   ar
     8    13    14   ar
     9    14    15   ar
    10    15    16    1
    11    15    17   ar
    12    17    18   ar
    13     1     7    1
    14     1     2    1
    15     2     3    1
    16     3     4    1
    17     4    21    1
    18    21    22    1
    19    22    23   ar
    20    23    24   ar
    21    24    25   ar
    22    25    26   ar
    23    26    27   ar
    24    27    28   ar
    25    28    29   ar
    26    29    30   ar
    27    30    31   ar
    28     4     5    1
    29     6     5    1
    30    18    12   ar
    31     6     1    1
    32     6     2    1
    33    31    22   ar
    34    31    26   ar
    35     8    11    1
@<TRIPOS>MOLECULE
*****
 31 35 0 0 0
SMALL
GASTEIGER

@<TRIPOS>ATOM
      1 C          62.6113   89.2870   11.4609 C.3     1  UNL1        0.0182
      2 C          63.2942   90.5631   11.0669 C.3     1  UNL1        0.0053
      3 C          64.0772   91.8388   10.9701 C.3     1  UNL1        0.0436
      4 C          64.6987   92.1040   12.3093 C.3     1  UNL1        0.1659
      5 C          64.2998   90.9922   13.2338 C.3     1  UNL1        0.0436
      6 C          63.4318   90.0399   12.4660 C.3     1  UNL1        0.0053
      7 C          61.7432   88.1156   11.1081 C.3     1  UNL1        0.0718
      8 N          61.9280   86.8055   11.8148 N.am    1  UNL1       -0.3025
      9 C          62.4091   85.6050   11.0551 C.2     1  UNL1        0.2458
     10 O          62.7054   85.7145    9.5888 O.2     1  UNL1       -0.2701
     11 H          61.7335   86.7336   12.7772 H       1  UNL1        0.1497
     12 C          62.5939   84.2948   11.7618 C.ar    1  UNL1        0.0534
     13 C          62.8462   83.0453   10.9712 C.ar    1  UNL1        0.0054
     14 C          63.0310   81.7351   11.6778 C.ar    1  UNL1        0.0115
     15 C          62.9634   81.6744   13.1751 C.ar    1  UNL1        0.0577
     16 CL         63.1482   80.3643   13.8817 Cl      1  UNL1       -0.0822
     17 C          62.7111   82.9240   13.9657 C.ar    1  UNL1        0.0115
     18 C          62.5263   84.2341   13.2590 C.ar    1  UNL1        0.0054
     19 C          60.2303   89.6170    9.6226 C.3     1  UNL1        0.0017
     20 C          60.6904   88.2544   10.0487 C.3     1  UNL1        0.0196
     21 O          65.5668   93.2754   12.6621 O.3     1  UNL1       -0.4791
     22 C          66.0896   94.1740   11.5808 C.ar    1  UNL1        0.1413
     23 C          65.7084   95.6246   11.5617 C.ar    1  UNL1        0.0575
     24 C          66.2312   96.5233   10.4804 C.ar    1  UNL1        0.1019
     25 N          67.1352   95.9713    9.4183 N.ar    1  UNL1       -0.2436
     26 C          67.5164   94.5206    9.4374 C.ar    1  UNL1        0.0842
     27 C          68.4204   93.9687    8.3753 C.ar    1  UNL1        0.0192
     28 C          68.8016   92.5181    8.3945 C.ar    1  UNL1        0.0015
     29 C          68.2788   91.6194    9.4757 C.ar    1  UNL1        0.0002
     30 C          67.3748   92.1714   10.5378 C.ar    1  UNL1        0.0045
     31 C          66.9936   93.6220   10.5187 C.ar    1  UNL1        0.0516
@<TRIPOS>BOND
     1    19    20    1
     2    20     7    1
     3     7     8    1
     4     8     9   am
     5     9    10    2
     6     9    12    1
     7    12    13   ar
     8    13    14   ar
     9    14    15   ar
    10    15    16    1
    11    15    17   ar
    12    17    18   ar
    13     1     7    1
    14     1     2    1
    15     2     3    1
    16     3     4    1
    17     4    21    1
    18    21    22    1
    19    22    23   ar
    20    23    24   ar
    21    24    25   ar
    22    25    26   ar
    23    26    27   ar
    24    27    28   ar
    25    28    29   ar
    26    29    30   ar
    27    30    31   ar
    28     4     5    1
    29     6     5    1
    30    18    12   ar
    31     6     1    1
    32     6     2    1
    33    31    22   ar
    34    31    26   ar
    35     8    11    1
@<TRIPOS>MOLECULE
*****
 31 35 0 0 0
SMALL
GASTEIGER

@<TRIPOS>ATOM
      1 C          61.9075   89.9908   11.5603 C.3     1  UNL1        0.0182
      2 C          62.8779   90.6043   12.5257 C.3     1  UNL1        0.0053
      3 C          63.9898   91.3222   13.2315 C.3     1  UNL1        0.0436
      4 C          64.8697   91.9503   12.1916 C.3     1  UNL1        0.1659
      5 C          64.3017   91.6205   10.8431 C.3     1  UNL1        0.0436
      6 C          63.0707   90.7886   11.0495 C.3     1  UNL1        0.0053
      7 C          60.6757   89.1760   11.2977 C.3     1  UNL1        0.0718
      8 N          60.6119   88.2785   10.0975 N.am    1  UNL1       -0.3025
      9 C          61.6062   87.1666    9.9389 C.2     1  UNL1        0.2458
     10 O          62.6642   86.9523   10.9804 O.2     1  UNL1       -0.2701
     11 H          59.9175   88.4192    9.4140 H       1  UNL1        0.1497
     12 C          61.5424   86.2690    8.7387 C.ar    1  UNL1        0.0534
     13 C          60.2517   86.1056    7.9921 C.ar    1  UNL1        0.0054
     14 C          60.1880   85.2080    6.7919 C.ar    1  UNL1        0.0115
     15 C          61.4149   84.4739    6.3384 C.ar    1  UNL1        0.0577
     16 CL         61.3512   83.5763    5.1383 Cl      1  UNL1       -0.0822
     17 C          62.7056   84.6374    7.0851 C.ar    1  UNL1        0.0115
     18 C          62.7693   85.5349    8.2852 C.ar    1  UNL1        0.0054
     19 C          58.5139   90.3738   12.0986 C.3     1  UNL1        0.0017
     20 C          59.5078   89.2588   12.2353 C.3     1  UNL1        0.0196
     21 O          66.1015   92.7650   12.4542 O.3     1  UNL1       -0.4791
     22 C          67.0146   93.1303   11.3215 C.ar    1  UNL1        0.1413
     23 C          68.1859   92.2541   10.9900 C.ar    1  UNL1        0.0575
     24 C          69.0990   92.6194    9.8574 C.ar    1  UNL1        0.1019
     25 N          68.8408   93.8610    9.0563 N.ar    1  UNL1       -0.2436
     26 C          67.6693   94.7373    9.3879 C.ar    1  UNL1        0.0842
     27 C          67.4111   95.9789    8.5869 C.ar    1  UNL1        0.0192
     28 C          66.2397   96.8552    8.9185 C.ar    1  UNL1        0.0015
     29 C          65.3266   96.4899   10.0511 C.ar    1  UNL1        0.0002
     30 C          65.5849   95.2483   10.8521 C.ar    1  UNL1        0.0045
     31 C          66.7562   94.3720   10.5205 C.ar    1  UNL1        0.0516
@<TRIPOS>BOND
     1    19    20    1
     2    20     7    1
     3     7     8    1
     4     8     9   am
     5     9    10    2
     6     9    12    1
     7    12    13   ar
     8    13    14   ar
     9    14    15   ar
    10    15    16    1
    11    15    17   ar
    12    17    18   ar
    13     1     7    1
    14     1     2    1
    15     2     3    1
    16     3     4    1
    17     4    21    1
    18    21    22    1
    19    22    23   ar
    20    23    24   ar
    21    24    25   ar
    22    25    26   ar
    23    26    27   ar
    24    27    28   ar
    25    28    29   ar
    26    29    30   ar
    27    30    31   ar
    28     4     5    1
    29     6     5    1
    30    18    12   ar
    31     6     1    1
    32     6     2    1
    33    31    22   ar
    34    31    26   ar
    35     8    11    1
@<TRIPOS>MOLECULE
*****
 31 35 0 0 0
SMALL
GASTEIGER

@<TRIPOS>ATOM
      1 C          61.8806   87.4899    9.5839 C.3     1  UNL1        0.0182
      2 C          62.6258   86.2871    9.0859 C.3     1  UNL1        0.0053
      3 C          63.2726   84.9535    8.8554 C.3     1  UNL1        0.0436
      4 C          62.9575   84.0762   10.0306 C.3     1  UNL1        0.1659
      5 C          62.1160   84.8675   10.9874 C.3     1  UNL1        0.0436
      6 C          61.9109   86.2340   10.4036 C.3     1  UNL1        0.0053
      7 C          61.4327   88.9094    9.3982 C.3     1  UNL1        0.0718
      8 N          62.3400   90.0390    9.7866 N.am    1  UNL1       -0.3025
      9 C          62.9939   90.0455   11.1364 C.2     1  UNL1        0.2458
     10 O          62.7406   88.9225   12.0980 O.2     1  UNL1       -0.2701
     11 H          62.5063   90.7761    9.1555 H       1  UNL1        0.1497
     12 C          63.9013   91.1751   11.5249 C.ar    1  UNL1        0.0534
     13 C          64.3302   92.1799   10.4971 C.ar    1  UNL1        0.0054
     14 C          65.2376   93.3095   10.8855 C.ar    1  UNL1        0.0115
     15 C          65.7159   93.4343   12.3017 C.ar    1  UNL1        0.0577
     16 CL         66.6232   94.5638   12.6902 Cl      1  UNL1       -0.0822
     17 C          65.2869   92.4294   13.3295 C.ar    1  UNL1        0.0115
     18 C          64.3796   91.2999   12.9411 C.ar    1  UNL1        0.0054
     19 C          59.4746   88.2661    7.8164 C.3     1  UNL1        0.0017
     20 C          60.0776   89.1993    8.8242 C.3     1  UNL1        0.0196
     21 O          63.4053   82.6567   10.2163 O.3     1  UNL1       -0.4791
     22 C          63.2455   81.9882   11.5496 C.ar    1  UNL1        0.1413
     23 C          62.6606   80.6094   11.6319 C.ar    1  UNL1        0.0575
     24 C          62.5008   79.9409   12.9652 C.ar    1  UNL1        0.1019
     25 N          62.9258   80.6512   14.2161 N.ar    1  UNL1       -0.2436
     26 C          63.5107   82.0300   14.1337 C.ar    1  UNL1        0.0842
     27 C          63.9358   82.7403   15.3846 C.ar    1  UNL1        0.0192
     28 C          64.5206   84.1191   15.3023 C.ar    1  UNL1        0.0015
     29 C          64.6805   84.7876   13.9691 C.ar    1  UNL1        0.0002
     30 C          64.2554   84.0773   12.7182 C.ar    1  UNL1        0.0045
     31 C          63.6706   82.6986   12.8005 C.ar    1  UNL1        0.0516
@<TRIPOS>BOND
     1    19    20    1
     2    20     7    1
     3     7     8    1
     4     8     9   am
     5     9    10    2
     6     9    12    1
     7    12    13   ar
     8    13    14   ar
     9    14    15   ar
    10    15    16    1
    11    15    17   ar
    12    17    18   ar
    13     1     7    1
    14     1     2    1
    15     2     3    1
    16     3     4    1
    17     4    21    1
    18    21    22    1
    19    22    23   ar
    20    23    24   ar
    21    24    25   ar
    22    25    26   ar
    23    26    27   ar
    24    27    28   ar
    25    28    29   ar
    26    29    30   ar
    27    30    31   ar
    28     4     5    1
    29     6     5    1
    30    18    12   ar
    31     6     1    1
    32     6     2    1
    33    31    22   ar
    34    31    26   ar
    35     8    11    1
@<TRIPOS>MOLECULE
*****
 31 35 0 0 0
SMALL
GASTEIGER

@<TRIPOS>ATOM
      1 C          61.9942   90.1188   12.0007 C.3     1  UNL1        0.0182
      2 C          63.0041   90.7207   12.9322 C.3     1  UNL1        0.0053
      3 C          64.1212   91.4623   13.6044 C.3     1  UNL1        0.0436
      4 C          64.8455   92.2569   12.5584 C.3     1  UNL1        0.1659
      5 C          64.1759   92.0064   11.2397 C.3     1  UNL1        0.0436
      6 C          63.0379   91.0569   11.4707 C.3     1  UNL1        0.0053
      7 C          60.8085   89.2297   11.7687 C.3     1  UNL1        0.0718
      8 N          60.7373   88.3815   10.5336 N.am    1  UNL1       -0.3025
      9 C          61.7049   87.2512   10.3433 C.2     1  UNL1        0.2458
     10 O          62.7436   86.9691   11.3880 O.2     1  UNL1       -0.2701
     11 H          60.0555   88.5666    9.8479 H       1  UNL1        0.1497
     12 C          61.6337   86.4030    9.1081 C.ar    1  UNL1        0.0534
     13 C          60.3478   86.2988    8.3429 C.ar    1  UNL1        0.0054
     14 C          60.2767   85.4505    7.1078 C.ar    1  UNL1        0.0115
     15 C          61.4915   84.7065    6.6380 C.ar    1  UNL1        0.0577
     16 CL         61.4204   83.8582    5.4029 Cl      1  UNL1       -0.0822
     17 C          62.7774   84.8107    7.4033 C.ar    1  UNL1        0.0115
     18 C          62.8485   85.6589    8.6383 C.ar    1  UNL1        0.0054
     19 C          58.2948   88.8827   12.3264 C.3     1  UNL1        0.0017
     20 C          59.6940   89.1888   12.7719 C.3     1  UNL1        0.0196
     21 O          66.0311   93.1460   12.7903 O.3     1  UNL1       -0.4791
     22 C          66.4489   94.1289   11.7370 C.ar    1  UNL1        0.1413
     23 C          66.1028   95.5807   11.8864 C.ar    1  UNL1        0.0575
     24 C          66.5206   96.5636   10.8331 C.ar    1  UNL1        0.1019
     25 N          67.2846   96.0946    9.6305 N.ar    1  UNL1       -0.2436
     26 C          67.6308   94.6428    9.4811 C.ar    1  UNL1        0.0842
     27 C          68.3949   94.1738    8.2785 C.ar    1  UNL1        0.0192
     28 C          68.7410   92.7220    8.1291 C.ar    1  UNL1        0.0015
     29 C          68.3232   91.7391    9.1824 C.ar    1  UNL1        0.0002
     30 C          67.5591   92.2081   10.3850 C.ar    1  UNL1        0.0045
     31 C          67.2130   93.6599   10.5343 C.ar    1  UNL1        0.0516
@<TRIPOS>BOND
     1    19    20    1
     2    20     7    1
     3     7     8    1
     4     8     9   am
     5     9    10    2
     6     9    12    1
     7    12    13   ar
     8    13    14   ar
     9    14    15   ar
    10    15    16    1
    11    15    17   ar
    12    17    18   ar
    13     1     7    1
    14     1     2    1
    15     2     3    1
    16     3     4    1
    17     4    21    1
    18    21    22    1
    19    22    23   ar
    20    23    24   ar
    21    24    25   ar
    22    25    26   ar
    23    26    27   ar
    24    27    28   ar
    25    28    29   ar
    26    29    30   ar
    27    30    31   ar
    28     4     5    1
    29     6     5    1
    30    18    12   ar
    31     6     1    1
    32     6     2    1
    33    31    22   ar
    34    31    26   ar
    35     8    11    1
@<TRIPOS>MOLECULE
*****
 31 35 0 0 0
SMALL
GASTEIGER

@<TRIPOS>ATOM
      1 C          59.5301   89.7395    6.8517 C.3     1  UNL1        0.0182
      2 C          58.6802   90.5743    5.9403 C.3     1  UNL1        0.0053
      3 C          58.1016   91.4667    4.8825 C.3     1  UNL1        0.0436
      4 C          59.2217   91.9163    3.9918 C.3     1  UNL1        0.1659
      5 C          60.4925   91.3018    4.4991 C.3     1  UNL1        0.0436
      6 C          60.1579   90.4724    5.7033 C.3     1  UNL1        0.0053
      7 C          59.6585   88.8343    8.0410 C.3     1  UNL1        0.0718
      8 N          60.4394   89.2797    9.2417 N.am    1  UNL1       -0.3025
      9 C          61.6462   88.5048    9.6810 C.2     1  UNL1        0.2458
     10 O          62.0722   87.2846    8.9197 O.2     1  UNL1       -0.2701
     11 H          60.1598   90.0805    9.7414 H       1  UNL1        0.1497
     12 C          62.4272   88.9502   10.8818 C.ar    1  UNL1        0.0534
     13 C          62.7913   90.3960   11.0457 C.ar    1  UNL1        0.0054
     14 C          63.5723   90.8414   12.2465 C.ar    1  UNL1        0.0115
     15 C          63.9891   89.8408   13.2834 C.ar    1  UNL1        0.0577
     16 CL         64.7701   90.2861   14.4841 Cl      1  UNL1       -0.0822
     17 C          63.6250   88.3949   13.1194 C.ar    1  UNL1        0.0115
     18 C          62.8441   87.9496   11.9187 C.ar    1  UNL1        0.0054
     19 C          59.7269   86.3074    7.4410 C.3     1  UNL1        0.0017
     20 C          59.0059   87.4837    8.0294 C.3     1  UNL1        0.0196
     21 O          59.0934   92.8214    2.8026 O.3     1  UNL1       -0.4791
     22 C          60.2495   92.9930    1.8625 C.ar    1  UNL1        0.1413
     23 C          61.6503   93.0392    2.3969 C.ar    1  UNL1        0.0575
     24 C          62.8065   93.2107    1.4568 C.ar    1  UNL1        0.1019
     25 N          62.5618   93.3362   -0.0178 N.ar    1  UNL1       -0.2436
     26 C          61.1610   93.2900   -0.5523 C.ar    1  UNL1        0.0842
     27 C          60.9164   93.4154   -2.0269 C.ar    1  UNL1        0.0192
     28 C          59.5156   93.3692   -2.5613 C.ar    1  UNL1        0.0015
     29 C          58.3595   93.1977   -1.6211 C.ar    1  UNL1        0.0002
     30 C          58.6041   93.0722   -0.1466 C.ar    1  UNL1        0.0045
     31 C          60.0048   93.1184    0.3878 C.ar    1  UNL1        0.0516
@<TRIPOS>BOND
     1    19    20    1
     2    20     7    1
     3     7     8    1
     4     8     9   am
     5     9    10    2
     6     9    12    1
     7    12    13   ar
     8    13    14   ar
     9    14    15   ar
    10    15    16    1
    11    15    17   ar
    12    17    18   ar
    13     1     7    1
    14     1     2    1
    15     2     3    1
    16     3     4    1
    17     4    21    1
    18    21    22    1
    19    22    23   ar
    20    23    24   ar
    21    24    25   ar
    22    25    26   ar
    23    26    27   ar
    24    27    28   ar
    25    28    29   ar
    26    29    30   ar
    27    30    31   ar
    28     4     5    1
    29     6     5    1
    30    18    12   ar
    31     6     1    1
    32     6     2    1
    33    31    22   ar
    34    31    26   ar
    35     8    11    1
