@<TRIPOS>MOLECULE
*****
 27 29 0 0 0
SMALL
GASTEIGER

@<TRIPOS>ATOM
      1 C          64.2845   88.5115   15.0672 C.ar    1  UNL1        0.1652
      2 N          63.5435   88.3551   16.3620 N.ar    1  UNL1       -0.2283
      3 C          63.1282   86.9192   16.4880 C.ar    1  UNL1        0.0673
      4 C          62.3630   86.3197   17.6303 C.3     1  UNL1        0.0527
      5 C          63.6125   86.1882   15.2710 C.ar    1  UNL1        0.0471
      6 S          64.3271   87.1722   14.3929 S.2     1  UNL1       -0.0517
      7 C          63.4166   84.7292   14.9827 C.ar    1  UNL1        0.0265
      8 C          62.0332   84.1816   14.7919 C.ar    1  UNL1        0.0049
      9 C          61.8374   82.7226   14.5036 C.ar    1  UNL1        0.0339
     10 C          63.0248   81.8114   14.4061 C.ar    1  UNL1        0.1254
     11 N          62.8291   80.3524   14.1178 N.pl3   1  UNL1       -0.3426
     12 N          64.4082   82.3591   14.5969 N.ar    1  UNL1       -0.2296
     13 C          64.6041   83.8180   14.8852 C.ar    1  UNL1        0.1008
     14 H          61.9212   79.9929   13.9925 H       1  UNL1        0.1437
     15 H          63.6085   79.7544   14.0538 H       1  UNL1        0.1437
     16 C          64.3886   90.3591   13.2437 C.2     1  UNL1        0.2270
     17 O          63.3048   89.6623   12.4758 O.2     1  UNL1       -0.2747
     18 N          64.8785   89.7837   14.5394 N.am    1  UNL1       -0.2642
     19 H          65.5899   90.2410   15.0434 H       1  UNL1        0.1567
     20 C          66.1706   94.1757   11.6601 C.3     1  UNL1        0.1154
     21 C          65.3278   93.3144   10.7670 C.3     1  UNL1        0.0300
     22 C          64.7338   92.0422   11.2949 C.3     1  UNL1        0.0116
     23 C          64.9826   91.6313   12.7158 C.3     1  UNL1        0.0770
     24 C          65.8254   92.4926   13.6090 C.3     1  UNL1        0.0116
     25 C          66.4195   93.7649   13.0811 C.3     1  UNL1        0.0300
     26 C          67.1971   95.5355    9.6987 C.3     1  UNL1        0.1740
     27 O          66.7646   95.4480   11.1323 O.3     1  UNL1       -0.3536
@<TRIPOS>BOND
     1    26    27    1
     2    20    27    1
     3    20    21    1
     4    21    22    1
     5    22    23    1
     6    23    16    1
     7    16    17    2
     8    16    18   am
     9    18     1    1
    10     1     2   ar
    11     2     3   ar
    12     3     4    1
    13     3     5   ar
    14     5     7    1
    15     7     8   ar
    16     8     9   ar
    17     9    10   ar
    18    10    11    1
    19    10    12   ar
    20    12    13   ar
    21     5     6   ar
    22    23    24    1
    23    24    25    1
    24    25    20    1
    25     6     1   ar
    26    13     7   ar
    27    18    19    1
    28    11    14    1
    29    11    15    1
@<TRIPOS>MOLECULE
*****
 27 29 0 0 0
SMALL
GASTEIGER

@<TRIPOS>ATOM
      1 C          63.8693   86.8826   14.7235 C.ar    1  UNL1        0.1652
      2 N          63.3325   87.5593   15.9499 N.ar    1  UNL1       -0.2283
      3 C          63.6621   89.0196   15.8555 C.ar    1  UNL1        0.0673
      4 C          63.3126   90.0696   16.8680 C.3     1  UNL1        0.0527
      5 C          64.4027   89.2455   14.5708 C.ar    1  UNL1        0.0471
      6 S          64.5308   87.9248   13.8711 S.2     1  UNL1       -0.0517
      7 C          64.9237   90.5610   14.0731 C.ar    1  UNL1        0.0265
      8 C          66.0723   91.2258   14.7723 C.ar    1  UNL1        0.0049
      9 C          66.5934   92.5414   14.2745 C.ar    1  UNL1        0.0339
     10 C          65.9659   93.1922   13.0776 C.ar    1  UNL1        0.1254
     11 N          66.4868   94.5078   12.5797 N.pl3   1  UNL1       -0.3426
     12 N          64.8173   92.5274   12.3784 N.ar    1  UNL1       -0.2296
     13 C          64.2962   91.2118   12.8761 C.ar    1  UNL1        0.1008
     14 H          67.2407   94.9441   13.0385 H       1  UNL1        0.1437
     15 H          66.0749   94.9348   11.7941 H       1  UNL1        0.1437
     16 C          63.0162   84.9709   13.1849 C.2     1  UNL1        0.2270
     17 O          62.3751   85.9833   12.2826 O.2     1  UNL1       -0.2747
     18 N          63.7633   85.4206   14.4053 N.am    1  UNL1       -0.2642
     19 H          64.1841   84.7562   14.9976 H       1  UNL1        0.1567
     20 C          62.6982   80.5848   12.2303 C.3     1  UNL1        0.1154
     21 C          63.2136   81.5419   11.1967 C.3     1  UNL1        0.0300
     22 C          63.3196   83.0039   11.5149 C.3     1  UNL1        0.0116
     23 C          62.9102   83.5089   12.8667 C.3     1  UNL1        0.0770
     24 C          62.3947   82.5519   13.9003 C.3     1  UNL1        0.0116
     25 C          62.2887   81.0898   13.5821 C.3     1  UNL1        0.0300
     26 C          62.7236   78.6525   10.4939 C.3     1  UNL1        0.1740
     27 O          62.5922   79.1228   11.9121 O.3     1  UNL1       -0.3536
@<TRIPOS>BOND
     1    26    27    1
     2    20    27    1
     3    20    21    1
     4    21    22    1
     5    22    23    1
     6    23    16    1
     7    16    17    2
     8    16    18   am
     9    18     1    1
    10     1     2   ar
    11     2     3   ar
    12     3     4    1
    13     3     5   ar
    14     5     7    1
    15     7     8   ar
    16     8     9   ar
    17     9    10   ar
    18    10    11    1
    19    10    12   ar
    20    12    13   ar
    21     5     6   ar
    22    23    24    1
    23    24    25    1
    24    25    20    1
    25     6     1   ar
    26    13     7   ar
    27    18    19    1
    28    11    14    1
    29    11    15    1
@<TRIPOS>MOLECULE
*****
 27 29 0 0 0
SMALL
GASTEIGER

@<TRIPOS>ATOM
      1 C          63.2279   89.6619   12.5715 C.ar    1  UNL1        0.1652
      2 N          62.6271   89.6559   13.9458 N.ar    1  UNL1       -0.2283
      3 C          63.5322   90.4380   14.8509 C.ar    1  UNL1        0.0673
      4 C          63.3152   90.6871   16.3140 C.3     1  UNL1        0.0527
      5 C          64.6924   90.9274   14.0358 C.ar    1  UNL1        0.0471
      6 S          64.5044   90.4477   12.6270 S.2     1  UNL1       -0.0517
      7 C          65.8394   91.7517   14.5408 C.ar    1  UNL1        0.0265
      8 C          65.8346   92.2584   15.9526 C.ar    1  UNL1        0.0049
      9 C          66.9815   93.0827   16.4576 C.ar    1  UNL1        0.0339
     10 C          68.1333   93.4004   15.5507 C.ar    1  UNL1        0.1254
     11 N          69.2803   94.2247   16.0555 N.pl3   1  UNL1       -0.3426
     12 N          68.1381   92.8937   14.1388 N.ar    1  UNL1       -0.2296
     13 C          66.9912   92.0694   13.6339 C.ar    1  UNL1        0.1008
     14 H          69.2772   94.5573   16.9822 H       1  UNL1        0.1437
     15 H          70.0362   94.4331   15.4603 H       1  UNL1        0.1437
     16 C          62.5896   87.5019   11.2764 C.2     1  UNL1        0.2270
     17 O          63.1008   86.6688   12.4141 O.2     1  UNL1       -0.2747
     18 N          62.6532   88.9985   11.3551 N.am    1  UNL1       -0.2642
     19 H          62.3177   89.5454   10.6083 H       1  UNL1        0.1567
     20 C          60.8654   85.5118    7.6272 C.3     1  UNL1        0.1154
     21 C          62.2973   85.2738    8.0053 C.3     1  UNL1        0.0300
     22 C          62.8720   85.9371    9.2217 C.3     1  UNL1        0.0116
     23 C          62.0149   86.8386   10.0600 C.3     1  UNL1        0.0770
     24 C          60.5830   87.0766    9.6818 C.3     1  UNL1        0.0116
     25 C          60.0083   86.4133    8.4654 C.3     1  UNL1        0.0300
     26 C          61.1774   84.0483    5.5034 C.3     1  UNL1        0.1740
     27 O          60.2907   84.8485    6.4108 O.3     1  UNL1       -0.3536
@<TRIPOS>BOND
     1    26    27    1
     2    20    27    1
     3    20    21    1
     4    21    22    1
     5    22    23    1
     6    23    16    1
     7    16    17    2
     8    16    18   am
     9    18     1    1
    10     1     2   ar
    11     2     3   ar
    12     3     4    1
    13     3     5   ar
    14     5     7    1
    15     7     8   ar
    16     8     9   ar
    17     9    10   ar
    18    10    11    1
    19    10    12   ar
    20    12    13   ar
    21     5     6   ar
    22    23    24    1
    23    24    25    1
    24    25    20    1
    25     6     1   ar
    26    13     7   ar
    27    18    19    1
    28    11    14    1
    29    11    15    1
@<TRIPOS>MOLECULE
*****
 27 29 0 0 0
SMALL
GASTEIGER

@<TRIPOS>ATOM
      1 C          61.8599   87.1550   11.3721 C.ar    1  UNL1        0.1652
      2 N          60.6450   88.0345   11.3497 N.ar    1  UNL1       -0.2283
      3 C          61.1004   89.4576   11.4811 C.ar    1  UNL1        0.0673
      4 C          60.2149   90.6681   11.5048 C.3     1  UNL1        0.0527
      5 C          62.5968   89.4577   11.5848 C.ar    1  UNL1        0.0471
      6 S          63.0663   88.0347   11.5174 S.2     1  UNL1       -0.0517
      7 C          63.4704   90.6683   11.7304 C.ar    1  UNL1        0.0265
      8 C          63.8402   91.4761   10.5217 C.ar    1  UNL1        0.0049
      9 C          64.7138   92.6867   10.6673 C.ar    1  UNL1        0.0339
     10 C          65.2177   93.0895   12.0214 C.ar    1  UNL1        0.1254
     11 N          66.0914   94.3001   12.1671 N.pl3   1  UNL1       -0.3426
     12 N          64.8480   92.2817   13.2301 N.ar    1  UNL1       -0.2296
     13 C          63.9743   91.0711   13.0845 C.ar    1  UNL1        0.1008
     14 H          66.3341   94.8304   11.3739 H       1  UNL1        0.1437
     15 H          66.4221   94.5645   13.0560 H       1  UNL1        0.1437
     16 C          62.6655   84.8428   12.2406 C.2     1  UNL1        0.2270
     17 O          63.4564   85.5232   13.3183 O.2     1  UNL1       -0.2747
     18 N          61.8673   85.6587   11.2675 N.am    1  UNL1       -0.2642
     19 H          61.3482   85.2121   10.5601 H       1  UNL1        0.1567
     20 C          62.6876   80.3538   11.9269 C.3     1  UNL1        0.1154
     21 C          62.2363   81.0147   13.1955 C.3     1  UNL1        0.0300
     22 C          62.2289   82.5111   13.3001 C.3     1  UNL1        0.0116
     23 C          62.6729   83.3464   12.1361 C.3     1  UNL1        0.0770
     24 C          63.1242   82.6855   10.8675 C.3     1  UNL1        0.0116
     25 C          63.1316   81.1891   10.7629 C.3     1  UNL1        0.0300
     26 C          62.7302   78.2000   10.4746 C.3     1  UNL1        0.1740
     27 O          62.6950   78.8574   11.8224 O.3     1  UNL1       -0.3536
@<TRIPOS>BOND
     1    26    27    1
     2    20    27    1
     3    20    21    1
     4    21    22    1
     5    22    23    1
     6    23    16    1
     7    16    17    2
     8    16    18   am
     9    18     1    1
    10     1     2   ar
    11     2     3   ar
    12     3     4    1
    13     3     5   ar
    14     5     7    1
    15     7     8   ar
    16     8     9   ar
    17     9    10   ar
    18    10    11    1
    19    10    12   ar
    20    12    13   ar
    21     5     6   ar
    22    23    24    1
    23    24    25    1
    24    25    20    1
    25     6     1   ar
    26    13     7   ar
    27    18    19    1
    28    11    14    1
    29    11    15    1
@<TRIPOS>MOLECULE
*****
 27 29 0 0 0
SMALL
GASTEIGER

@<TRIPOS>ATOM
      1 C          64.1225   90.5033   13.7081 C.ar    1  UNL1        0.1652
      2 N          63.6812   90.5888   15.1392 N.ar    1  UNL1       -0.2283
      3 C          63.4953   89.1912   15.6513 C.ar    1  UNL1        0.0673
      4 C          63.0596   88.8098   17.0349 C.3     1  UNL1        0.0527
      5 C          63.8217   88.2419   14.5366 C.ar    1  UNL1        0.0471
      6 S          64.2093   89.0528   13.3357 S.2     1  UNL1       -0.0517
      7 C          63.7696   86.7446   14.6100 C.ar    1  UNL1        0.0265
      8 C          63.5696   85.9390   13.3606 C.ar    1  UNL1        0.0049
      9 C          63.5176   84.4417   13.4340 C.ar    1  UNL1        0.0339
     10 C          63.6654   83.7501   14.7568 C.ar    1  UNL1        0.1254
     11 N          63.6133   82.2527   14.8303 N.pl3   1  UNL1       -0.3426
     12 N          63.8653   84.5557   16.0062 N.ar    1  UNL1       -0.2296
     13 C          63.9174   86.0530   15.9328 C.ar    1  UNL1        0.1008
     14 H          63.4821   81.7239   14.0103 H       1  UNL1        0.1437
     15 H          63.7103   81.7989   15.6985 H       1  UNL1        0.1437
     16 C          65.8205   92.2051   12.7231 C.2     1  UNL1        0.2270
     17 O          66.9155   91.5848   13.5391 O.2     1  UNL1       -0.2747
     18 N          64.4239   91.6644   12.8076 N.am    1  UNL1       -0.2642
     19 H          63.7052   92.0715   12.2719 H       1  UNL1        0.1567
     20 C          66.7250   95.6883   10.0214 C.3     1  UNL1        0.1154
     21 C          66.4498   95.9203   11.4775 C.3     1  UNL1        0.0300
     22 C          66.1483   94.7592   12.3781 C.3     1  UNL1        0.0116
     23 C          66.1220   93.3662   11.8225 C.3     1  UNL1        0.0770
     24 C          66.3971   93.1342   10.3663 C.3     1  UNL1        0.0116
     25 C          66.6986   94.2953    9.4658 C.3     1  UNL1        0.0300
     26 C          66.6864   96.7750    7.6618 C.3     1  UNL1        0.1740
     27 O          67.0265   96.8494    9.1208 O.3     1  UNL1       -0.3536
@<TRIPOS>BOND
     1    26    27    1
     2    20    27    1
     3    20    21    1
     4    21    22    1
     5    22    23    1
     6    23    16    1
     7    16    17    2
     8    16    18   am
     9    18     1    1
    10     1     2   ar
    11     2     3   ar
    12     3     4    1
    13     3     5   ar
    14     5     7    1
    15     7     8   ar
    16     8     9   ar
    17     9    10   ar
    18    10    11    1
    19    10    12   ar
    20    12    13   ar
    21     5     6   ar
    22    23    24    1
    23    24    25    1
    24    25    20    1
    25     6     1   ar
    26    13     7   ar
    27    18    19    1
    28    11    14    1
    29    11    15    1
@<TRIPOS>MOLECULE
*****
 27 29 0 0 0
SMALL
GASTEIGER

@<TRIPOS>ATOM
      1 C          63.9465   89.0240   13.7865 C.ar    1  UNL1        0.1652
      2 N          64.2502   89.6682   15.1066 N.ar    1  UNL1       -0.2283
      3 C          64.8159   91.0312   14.8382 C.ar    1  UNL1        0.0673
      4 C          65.2580   92.0220   15.8739 C.3     1  UNL1        0.0527
      5 C          64.8619   91.2295   13.3521 C.ar    1  UNL1        0.0471
      6 S          64.3246   89.9890   12.7020 S.2     1  UNL1       -0.0517
      7 C          65.3581   92.4534   12.6408 C.ar    1  UNL1        0.0265
      8 C          65.0564   92.6485   11.1844 C.ar    1  UNL1        0.0049
      9 C          65.5526   93.8724   10.4731 C.ar    1  UNL1        0.0339
     10 C          66.3505   94.9011   11.2182 C.ar    1  UNL1        0.1254
     11 N          66.8467   96.1250   10.5070 N.pl3   1  UNL1       -0.3426
     12 N          66.6522   94.7059   12.6745 N.ar    1  UNL1       -0.2296
     13 C          66.1560   93.4820   13.3858 C.ar    1  UNL1        0.1008
     14 H          66.6487   96.2532    9.5512 H       1  UNL1        0.1437
     15 H          67.3704   96.8001   10.9961 H       1  UNL1        0.1437
     16 C          64.0475   86.4579   14.1796 C.2     1  UNL1        0.2270
     17 O          65.3084   86.6292   14.9738 O.2     1  UNL1       -0.2747
     18 N          63.3666   87.6553   13.5859 N.am    1  UNL1       -0.2642
     19 H          62.5391   87.5428   13.0646 H       1  UNL1        0.1567
     20 C          62.3078   82.3516   13.5779 C.3     1  UNL1        0.1154
     21 C          62.4308   82.9187   14.9610 C.3     1  UNL1        0.0300
     22 C          63.0107   84.2875   15.1616 C.3     1  UNL1        0.0116
     23 C          63.4676   85.0891   13.9790 C.3     1  UNL1        0.0770
     24 C          63.3447   84.5220   12.5958 C.3     1  UNL1        0.0116
     25 C          62.7648   83.1532   12.3953 C.3     1  UNL1        0.0300
     26 C          62.5619   79.8975   12.7638 C.3     1  UNL1        0.1740
     27 O          61.7279   80.9829   13.3773 O.3     1  UNL1       -0.3536
@<TRIPOS>BOND
     1    26    27    1
     2    20    27    1
     3    20    21    1
     4    21    22    1
     5    22    23    1
     6    23    16    1
     7    16    17    2
     8    16    18   am
     9    18     1    1
    10     1     2   ar
    11     2     3   ar
    12     3     4    1
    13     3     5   ar
    14     5     7    1
    15     7     8   ar
    16     8     9   ar
    17     9    10   ar
    18    10    11    1
    19    10    12   ar
    20    12    13   ar
    21     5     6   ar
    22    23    24    1
    23    24    25    1
    24    25    20    1
    25     6     1   ar
    26    13     7   ar
    27    18    19    1
    28    11    14    1
    29    11    15    1
@<TRIPOS>MOLECULE
*****
 27 29 0 0 0
SMALL
GASTEIGER

@<TRIPOS>ATOM
      1 C          62.8780   86.9607   11.9812 C.ar    1  UNL1        0.1652
      2 N          62.1635   88.0517   11.2401 N.ar    1  UNL1       -0.2283
      3 C          62.5158   89.3588   11.8863 C.ar    1  UNL1        0.0673
      4 C          62.0225   90.7114   11.4659 C.3     1  UNL1        0.0527
      5 C          63.4480   89.0756   13.0268 C.ar    1  UNL1        0.0471
      6 S          63.6720   87.5935   13.0854 S.2     1  UNL1       -0.0517
      7 C          64.0506   90.0953   13.9471 C.ar    1  UNL1        0.0265
      8 C          65.2881   90.8374   13.5370 C.ar    1  UNL1        0.0049
      9 C          65.8906   91.8572   14.4573 C.ar    1  UNL1        0.0339
     10 C          65.2558   92.1349   15.7876 C.ar    1  UNL1        0.1254
     11 N          65.8583   93.1546   16.7080 N.pl3   1  UNL1       -0.3426
     12 N          64.0184   91.3928   16.1977 N.ar    1  UNL1       -0.2296
     13 C          63.4158   90.3730   15.2774 C.ar    1  UNL1        0.1008
     14 H          66.6705   93.6417   16.4389 H       1  UNL1        0.1437
     15 H          65.4416   93.3368   17.5812 H       1  UNL1        0.1437
     16 C          62.8674   84.4902   12.7849 C.2     1  UNL1        0.2270
     17 O          62.9918   84.9522   14.2065 O.2     1  UNL1       -0.2747
     18 N          62.8105   85.4944   11.6722 N.am    1  UNL1       -0.2642
     19 H          62.7289   85.1912   10.7392 H       1  UNL1        0.1567
     20 C          62.6649   80.0913   11.8582 C.3     1  UNL1        0.1154
     21 C          62.3023   80.5869   13.2267 C.3     1  UNL1        0.0300
     22 C          62.3698   82.0532   13.5356 C.3     1  UNL1        0.0116
     23 C          62.7999   83.0239   12.4760 C.3     1  UNL1        0.0770
     24 C          63.1625   82.5282   11.1075 C.3     1  UNL1        0.0116
     25 C          63.0950   81.0620   10.7986 C.3     1  UNL1        0.0300
     26 C          62.9162   78.1340   10.1682 C.3     1  UNL1        0.1740
     27 O          62.5974   78.6250   11.5493 O.3     1  UNL1       -0.3536
@<TRIPOS>BOND
     1    26    27    1
     2    20    27    1
     3    20    21    1
     4    21    22    1
     5    22    23    1
     6    23    16    1
     7    16    17    2
     8    16    18   am
     9    18     1    1
    10     1     2   ar
    11     2     3   ar
    12     3     4    1
    13     3     5   ar
    14     5     7    1
    15     7     8   ar
    16     8     9   ar
    17     9    10   ar
    18    10    11    1
    19    10    12   ar
    20    12    13   ar
    21     5     6   ar
    22    23    24    1
    23    24    25    1
    24    25    20    1
    25     6     1   ar
    26    13     7   ar
    27    18    19    1
    28    11    14    1
    29    11    15    1
@<TRIPOS>MOLECULE
*****
 27 29 0 0 0
SMALL
GASTEIGER

@<TRIPOS>ATOM
      1 C          63.9715   87.3163   13.5748 C.ar    1  UNL1        0.1652
      2 N          63.0108   87.4483   12.4304 N.ar    1  UNL1       -0.2283
      3 C          62.4551   86.0872   12.1323 C.ar    1  UNL1        0.0673
      4 C          61.4575   85.7572   11.0620 C.3     1  UNL1        0.0527
      5 C          63.0724   85.1141   13.0926 C.ar    1  UNL1        0.0471
      6 S          64.0095   85.8737   13.9841 S.2     1  UNL1       -0.0517
      7 C          62.8003   83.6402   13.1511 C.ar    1  UNL1        0.0265
      8 C          63.0119   82.7895   11.9339 C.ar    1  UNL1        0.0049
      9 C          62.7398   81.3155   11.9925 C.ar    1  UNL1        0.0339
     10 C          62.2560   80.6923   13.2682 C.ar    1  UNL1        0.1254
     11 N          61.9839   79.2183   13.3269 N.pl3   1  UNL1       -0.3426
     12 N          62.0443   81.5430   14.4854 N.ar    1  UNL1       -0.2296
     13 C          62.3165   83.0169   14.4268 C.ar    1  UNL1        0.1008
     14 H          62.1228   78.6599   12.5280 H       1  UNL1        0.1437
     15 H          61.6663   78.8093   14.1642 H       1  UNL1        0.1437
     16 C          64.6383   89.8259   13.6608 C.2     1  UNL1        0.2270
     17 O          63.7355   90.1057   12.4961 O.2     1  UNL1       -0.2747
     18 N          64.7563   88.4312   14.2001 N.am    1  UNL1       -0.2642
     19 H          65.3489   88.2476   14.9646 H       1  UNL1        0.1567
     20 C          66.9928   93.1706   15.5368 C.3     1  UNL1        0.1154
     21 C          67.3991   92.6255   14.1998 C.3     1  UNL1        0.0300
     22 C          66.6143   91.5106   13.5745 C.3     1  UNL1        0.0116
     23 C          65.4231   90.9408   14.2861 C.3     1  UNL1        0.0770
     24 C          65.0168   91.4859   15.6232 C.3     1  UNL1        0.0116
     25 C          65.8016   92.6008   16.2485 C.3     1  UNL1        0.0300
     26 C          69.2760   94.2784   16.0933 C.3     1  UNL1        0.1740
     27 O          67.7776   94.2855   16.1622 O.3     1  UNL1       -0.3536
@<TRIPOS>BOND
     1    26    27    1
     2    20    27    1
     3    20    21    1
     4    21    22    1
     5    22    23    1
     6    23    16    1
     7    16    17    2
     8    16    18   am
     9    18     1    1
    10     1     2   ar
    11     2     3   ar
    12     3     4    1
    13     3     5   ar
    14     5     7    1
    15     7     8   ar
    16     8     9   ar
    17     9    10   ar
    18    10    11    1
    19    10    12   ar
    20    12    13   ar
    21     5     6   ar
    22    23    24    1
    23    24    25    1
    24    25    20    1
    25     6     1   ar
    26    13     7   ar
    27    18    19    1
    28    11    14    1
    29    11    15    1
@<TRIPOS>MOLECULE
*****
 27 29 0 0 0
SMALL
GASTEIGER

@<TRIPOS>ATOM
      1 C          63.9362   88.0347   13.8922 C.ar    1  UNL1        0.1652
      2 N          63.3487   88.9912   12.8972 N.ar    1  UNL1       -0.2283
      3 C          64.0264   90.3177   13.0733 C.ar    1  UNL1        0.0673
      4 C          63.7469   91.5622   12.2841 C.3     1  UNL1        0.0527
      5 C          65.0328   90.1812   14.1772 C.ar    1  UNL1        0.0471
      6 S          64.9771   88.7702   14.6834 S.2     1  UNL1       -0.0517
      7 C          65.9363   91.2652   14.6857 C.ar    1  UNL1        0.0265
      8 C          67.2176   91.5716   13.9684 C.ar    1  UNL1        0.0049
      9 C          68.1211   92.6556   14.4768 C.ar    1  UNL1        0.0339
     10 C          67.7433   93.4332   15.7026 C.ar    1  UNL1        0.1254
     11 N          68.6467   94.5173   16.2112 N.pl3   1  UNL1       -0.3426
     12 N          66.4620   93.1268   16.4199 N.ar    1  UNL1       -0.2296
     13 C          65.5585   92.0428   15.9115 C.ar    1  UNL1        0.1008
     14 H          69.4877   94.7184   15.7405 H       1  UNL1        0.1437
     15 H          68.3987   95.0276   17.0158 H       1  UNL1        0.1437
     16 C          63.1167   85.7871   12.8792 C.2     1  UNL1        0.2270
     17 O          63.0685   86.4177   11.5191 O.2     1  UNL1       -0.2747
     18 N          63.5506   86.5956   14.0658 N.am    1  UNL1       -0.2642
     19 H          63.5823   86.1817   14.9585 H       1  UNL1        0.1567
     20 C          61.9599   81.4696   13.3997 C.3     1  UNL1        0.1154
     21 C          62.3790   81.9764   12.0517 C.3     1  UNL1        0.0300
     22 C          62.7646   83.4156   11.8781 C.3     1  UNL1        0.0116
     23 C          62.7311   84.3479   13.0527 C.3     1  UNL1        0.0770
     24 C          62.3120   83.8410   14.4008 C.3     1  UNL1        0.0116
     25 C          61.9264   82.4019   14.5743 C.3     1  UNL1        0.0300
     26 C          60.2419   79.6770   14.1647 C.3     1  UNL1        0.1740
     27 O          61.5743   80.0304   13.5733 O.3     1  UNL1       -0.3536
@<TRIPOS>BOND
     1    26    27    1
     2    20    27    1
     3    20    21    1
     4    21    22    1
     5    22    23    1
     6    23    16    1
     7    16    17    2
     8    16    18   am
     9    18     1    1
    10     1     2   ar
    11     2     3   ar
    12     3     4    1
    13     3     5   ar
    14     5     7    1
    15     7     8   ar
    16     8     9   ar
    17     9    10   ar
    18    10    11    1
    19    10    12   ar
    20    12    13   ar
    21     5     6   ar
    22    23    24    1
    23    24    25    1
    24    25    20    1
    25     6     1   ar
    26    13     7   ar
    27    18    19    1
    28    11    14    1
    29    11    15    1
