@<TRIPOS>MOLECULE
*****
 32 36 0 0 0
SMALL
GASTEIGER

@<TRIPOS>ATOM
      1 C          64.2489   86.8015   14.9881 C.3     1  UNL1        0.0730
      2 N          63.8003   85.9207   13.8599 N.3     1  UNL1       -0.2724
      3 C          64.0843   84.4545   13.7194 C.3     1  UNL1        0.0724
      4 C          63.4484   83.9790   12.4467 C.3     1  UNL1        0.0214
      5 C          62.7215   83.8024   11.1467 C.3     1  UNL1        0.0072
      6 C          62.7715   85.1514   11.8007 C.3     1  UNL1        0.0350
      7 C          62.9890   86.3513   12.6741 C.3     1  UNL1        0.0761
      8 C          61.9706   85.8640   10.7516 C.ar    1  UNL1       -0.0215
      9 C          62.1223   85.4873    9.3076 C.ar    1  UNL1       -0.0043
     10 C          61.3213   86.2000    8.2584 C.ar    1  UNL1        0.0035
     11 C          60.3688   87.2895    8.6533 C.ar    1  UNL1        0.0714
     12 C          60.2172   87.6661   10.0974 C.ar    1  UNL1        0.0035
     13 C          61.0181   86.9535   11.1465 C.ar    1  UNL1       -0.0043
     14 C          59.5679   88.0021    7.6042 C.3     1  UNL1        0.4186
     15 F          58.7670   88.7148    6.5551 F       1  UNL1       -0.1659
     16 F          60.2022   89.3017    8.0028 F       1  UNL1       -0.1659
     17 F          58.9336   86.7026    7.2056 F       1  UNL1       -0.1659
     18 C          64.5093   88.2584   14.7443 C.3     1  UNL1        0.0294
     19 C          63.6863   89.2957   15.4491 C.3     1  UNL1        0.0666
     20 S          63.9074   90.7512   15.1614 S.3     1  UNL1       -0.0756
     21 C          66.4269   92.6302   14.2837 C.3     1  UNL1        0.1340
     22 N          65.3871   92.0633   13.3631 N.ar    1  UNL1       -0.2884
     23 C          64.2290   91.1996   13.7666 C.ar    1  UNL1        0.1932
     24 N          63.4490   90.8630   12.5304 N.ar    1  UNL1       -0.1221
     25 N          64.1250   91.5187   11.3630 N.ar    1  UNL1       -0.1282
     26 C          65.3228   92.2605   11.8776 C.ar    1  UNL1        0.1684
     27 C          66.2871   93.0593   11.0517 C.ar    1  UNL1        0.0585
     28 C          66.0039   94.5019   10.7541 C.ar    1  UNL1        0.0272
     29 C          66.9682   95.3007    9.9282 C.ar    1  UNL1        0.1223
     30 N          68.2157   94.6568    9.3998 N.ar    1  UNL1       -0.1464
     31 N          68.4989   93.2142    9.6974 N.ar    1  UNL1       -0.1463
     32 C          67.5346   92.4154   10.5233 C.ar    1  UNL1        0.1252
@<TRIPOS>BOND
     1    21    22    1
     2    22    23   ar
     3    23    20    1
     4    20    19    1
     5    19    18    1
     6    18     1    1
     7     1     2    1
     8     2     3    1
     9     4     3    1
    10     4     5    1
    11     5     6    1
    12     6     8    1
    13     8     9   ar
    14     9    10   ar
    15    10    11   ar
    16    11    14    1
    17    14    15    1
    18    14    16    1
    19    14    17    1
    20    11    12   ar
    21    12    13   ar
    22     6     7    1
    23    23    24   ar
    24    24    25   ar
    25    25    26   ar
    26    26    27    1
    27    27    28   ar
    28    28    29   ar
    29    29    30   ar
    30    30    31   ar
    31    31    32   ar
    32    26    22   ar
    33    32    27   ar
    34     7     2    1
    35     6     4    1
    36    13     8   ar
@<TRIPOS>MOLECULE
*****
 32 36 0 0 0
SMALL
GASTEIGER

@<TRIPOS>ATOM
      1 C          63.1808   84.8102   15.4834 C.3     1  UNL1        0.0730
      2 N          63.3802   84.4518   14.0405 N.3     1  UNL1       -0.2724
      3 C          64.2989   83.3890   13.5148 C.3     1  UNL1        0.0724
      4 C          64.1824   83.3736   12.0194 C.3     1  UNL1        0.0214
      5 C          63.8598   83.5900   10.5706 C.3     1  UNL1        0.0072
      6 C          63.1917   84.4271   11.6209 C.3     1  UNL1        0.0350
      7 C          62.6960   85.0934   12.8700 C.3     1  UNL1        0.0761
      8 C          62.3678   85.2437   10.6699 C.ar    1  UNL1       -0.0215
      9 C          61.3349   86.1944   11.1983 C.ar    1  UNL1       -0.0043
     10 C          60.5110   87.0111   10.2473 C.ar    1  UNL1        0.0035
     11 C          60.7199   86.8769    8.7680 C.ar    1  UNL1        0.0714
     12 C          61.7529   85.9260    8.2397 C.ar    1  UNL1        0.0035
     13 C          62.5768   85.1095    9.1906 C.ar    1  UNL1       -0.0043
     14 C          59.8960   87.6935    7.8171 C.3     1  UNL1        0.4186
     15 F          59.0721   88.5101    6.8661 F       1  UNL1       -0.1659
     16 F          59.3320   86.4357    7.2256 F       1  UNL1       -0.1659
     17 F          60.4600   88.9513    8.4085 F       1  UNL1       -0.1659
     18 C          63.9267   85.9674   16.0787 C.3     1  UNL1        0.0294
     19 C          63.2425   86.8787   17.0541 C.3     1  UNL1        0.0666
     20 S          62.4645   88.0610   16.5571 S.3     1  UNL1       -0.0756
     21 C          64.1809   88.4544   13.8096 C.3     1  UNL1        0.1340
     22 N          63.9720   89.4899   14.8746 N.ar    1  UNL1       -0.2884
     23 C          63.1830   89.3090   16.1375 C.ar    1  UNL1        0.1932
     24 N          63.2388   90.5953   16.9070 N.ar    1  UNL1       -0.1221
     25 N          64.0622   91.5711   16.1199 N.ar    1  UNL1       -0.1282
     26 C          64.5153   90.8879   14.8637 C.ar    1  UNL1        0.1684
     27 C          65.3630   91.4961   13.7859 C.ar    1  UNL1        0.0585
     28 C          64.7425   91.8978   12.4807 C.ar    1  UNL1        0.0272
     29 C          65.5902   92.5060   11.4030 C.ar    1  UNL1        0.1223
     30 N          67.0585   92.7123   11.6304 N.ar    1  UNL1       -0.1464
     31 N          67.6790   92.3105   12.9356 N.ar    1  UNL1       -0.1463
     32 C          66.8313   91.7024   14.0133 C.ar    1  UNL1        0.1252
@<TRIPOS>BOND
     1    21    22    1
     2    22    23   ar
     3    23    20    1
     4    20    19    1
     5    19    18    1
     6    18     1    1
     7     1     2    1
     8     2     3    1
     9     4     3    1
    10     4     5    1
    11     5     6    1
    12     6     8    1
    13     8     9   ar
    14     9    10   ar
    15    10    11   ar
    16    11    14    1
    17    14    15    1
    18    14    16    1
    19    14    17    1
    20    11    12   ar
    21    12    13   ar
    22     6     7    1
    23    23    24   ar
    24    24    25   ar
    25    25    26   ar
    26    26    27    1
    27    27    28   ar
    28    28    29   ar
    29    29    30   ar
    30    30    31   ar
    31    31    32   ar
    32    26    22   ar
    33    32    27   ar
    34     7     2    1
    35     6     4    1
    36    13     8   ar
@<TRIPOS>MOLECULE
*****
 32 36 0 0 0
SMALL
GASTEIGER

@<TRIPOS>ATOM
      1 C          63.1040   84.6427    8.8908 C.3     1  UNL1        0.0730
      2 N          63.4211   83.9196   10.1662 N.3     1  UNL1       -0.2724
      3 C          63.8840   82.4975   10.2818 C.3     1  UNL1        0.0724
      4 C          64.0799   82.1907   11.7370 C.3     1  UNL1        0.0214
      5 C          64.1836   82.1807   13.2333 C.3     1  UNL1        0.0072
      6 C          63.7381   83.4231   12.5207 C.3     1  UNL1        0.0350
      7 C          63.3309   84.4916   11.5499 C.3     1  UNL1        0.0761
      8 C          63.5548   84.2549   13.7554 C.ar    1  UNL1       -0.0215
      9 C          62.3506   84.0498   14.6259 C.ar    1  UNL1       -0.0043
     10 C          62.1673   84.8816   15.8607 C.ar    1  UNL1        0.0035
     11 C          63.1882   85.9185   16.2248 C.ar    1  UNL1        0.0714
     12 C          64.3924   86.1236   15.3542 C.ar    1  UNL1        0.0035
     13 C          64.5757   85.2918   14.1195 C.ar    1  UNL1       -0.0043
     14 C          63.0049   86.7503   17.4595 C.3     1  UNL1        0.4186
     15 F          62.8216   87.5821   18.6942 F       1  UNL1       -0.1659
     16 F          63.5803   87.9373   16.7453 F       1  UNL1       -0.1659
     17 F          62.4295   85.5634   18.1737 F       1  UNL1       -0.1659
     18 C          62.9047   86.1293    8.9011 C.3     1  UNL1        0.0294
     19 C          61.5854   86.7062    9.3214 C.3     1  UNL1        0.0666
     20 S          61.5074   88.1228    9.8086 S.3     1  UNL1       -0.0756
     21 C          62.8749   91.0590   10.2054 C.3     1  UNL1        0.1340
     22 N          62.9629   89.9087   11.1641 N.ar    1  UNL1       -0.2884
     23 C          62.3342   88.5590   10.9817 C.ar    1  UNL1        0.1932
     24 N          62.6777   87.7223   12.1782 N.ar    1  UNL1       -0.1221
     25 N          63.5185   88.5547   13.1001 N.ar    1  UNL1       -0.1282
     26 C          63.6948   89.9060   12.4733 C.ar    1  UNL1        0.1684
     27 C          64.4674   91.0532   13.0539 C.ar    1  UNL1        0.0585
     28 C          65.0912   92.0726   12.1474 C.ar    1  UNL1        0.0272
     29 C          65.8637   93.2198   12.7280 C.ar    1  UNL1        0.1223
     30 N          66.0125   93.3476   14.2151 N.ar    1  UNL1       -0.1464
     31 N          65.3887   92.3282   15.1217 N.ar    1  UNL1       -0.1463
     32 C          64.6162   91.1811   14.5410 C.ar    1  UNL1        0.1252
@<TRIPOS>BOND
     1    21    22    1
     2    22    23   ar
     3    23    20    1
     4    20    19    1
     5    19    18    1
     6    18     1    1
     7     1     2    1
     8     2     3    1
     9     4     3    1
    10     4     5    1
    11     5     6    1
    12     6     8    1
    13     8     9   ar
    14     9    10   ar
    15    10    11   ar
    16    11    14    1
    17    14    15    1
    18    14    16    1
    19    14    17    1
    20    11    12   ar
    21    12    13   ar
    22     6     7    1
    23    23    24   ar
    24    24    25   ar
    25    25    26   ar
    26    26    27    1
    27    27    28   ar
    28    28    29   ar
    29    29    30   ar
    30    30    31   ar
    31    31    32   ar
    32    26    22   ar
    33    32    27   ar
    34     7     2    1
    35     6     4    1
    36    13     8   ar
@<TRIPOS>MOLECULE
*****
 32 36 0 0 0
SMALL
GASTEIGER

@<TRIPOS>ATOM
      1 C          60.1155   90.3503   10.0869 C.3     1  UNL1        0.0730
      2 N          60.2377   89.0428    9.3619 N.3     1  UNL1       -0.2724
      3 C          59.5749   88.6892    8.0636 C.3     1  UNL1        0.0724
      4 C          59.9718   87.2872    7.7072 C.3     1  UNL1        0.0214
      5 C          60.5317   85.8985    7.6184 C.3     1  UNL1        0.0072
      6 C          60.8800   86.7744    8.7853 C.3     1  UNL1        0.0350
      7 C          61.0443   87.8594    9.8079 C.3     1  UNL1        0.0761
      8 C          61.7593   85.7741    9.4753 C.ar    1  UNL1       -0.0215
      9 C          62.7581   84.9821    8.6846 C.ar    1  UNL1       -0.0043
     10 C          63.6376   83.9818    9.3746 C.ar    1  UNL1        0.0035
     11 C          63.5181   83.7734   10.8553 C.ar    1  UNL1        0.0714
     12 C          62.5191   84.5654   11.6459 C.ar    1  UNL1        0.0035
     13 C          61.6398   85.5657   10.9559 C.ar    1  UNL1       -0.0043
     14 C          64.3974   82.7731   11.5453 C.3     1  UNL1        0.4186
     15 F          65.2768   81.7728   12.2352 F       1  UNL1       -0.1659
     16 F          64.6327   83.7488   12.6599 F       1  UNL1       -0.1659
     17 F          64.1621   81.7973   10.4306 F       1  UNL1       -0.1659
     18 C          60.6120   90.4754   11.4968 C.3     1  UNL1        0.0294
     19 C          61.8558   89.7522   11.9209 C.3     1  UNL1        0.0666
     20 S          62.5730   90.1641   13.1723 S.3     1  UNL1       -0.0756
     21 C          63.8337   91.4305   10.4417 C.3     1  UNL1        0.1340
     22 N          64.3428   91.6553   11.8347 N.ar    1  UNL1       -0.2884
     23 C          63.7633   91.0732   13.0898 C.ar    1  UNL1        0.1932
     24 N          64.5831   91.5598   14.2479 N.ar    1  UNL1       -0.1221
     25 N          65.6691   92.4426   13.7085 N.ar    1  UNL1       -0.1282
     26 C          65.5207   92.5016   12.2171 C.ar    1  UNL1        0.1684
     27 C          66.3964   93.2718   11.2736 C.ar    1  UNL1        0.0585
     28 C          67.3170   92.5428   10.3404 C.ar    1  UNL1        0.0272
     29 C          68.1926   93.3130    9.3971 C.ar    1  UNL1        0.1223
     30 N          68.1477   94.8123    9.3869 N.ar    1  UNL1       -0.1464
     31 N          67.2271   95.5414   10.3201 N.ar    1  UNL1       -0.1463
     32 C          66.3514   94.7712   11.2635 C.ar    1  UNL1        0.1252
@<TRIPOS>BOND
     1    21    22    1
     2    22    23   ar
     3    23    20    1
     4    20    19    1
     5    19    18    1
     6    18     1    1
     7     1     2    1
     8     2     3    1
     9     4     3    1
    10     4     5    1
    11     5     6    1
    12     6     8    1
    13     8     9   ar
    14     9    10   ar
    15    10    11   ar
    16    11    14    1
    17    14    15    1
    18    14    16    1
    19    14    17    1
    20    11    12   ar
    21    12    13   ar
    22     6     7    1
    23    23    24   ar
    24    24    25   ar
    25    25    26   ar
    26    26    27    1
    27    27    28   ar
    28    28    29   ar
    29    29    30   ar
    30    30    31   ar
    31    31    32   ar
    32    26    22   ar
    33    32    27   ar
    34     7     2    1
    35     6     4    1
    36    13     8   ar
@<TRIPOS>MOLECULE
*****
 32 36 0 0 0
SMALL
GASTEIGER

@<TRIPOS>ATOM
      1 C          59.4373   88.6218   11.0443 C.3     1  UNL1        0.0730
      2 N          60.4621   87.7319   10.4057 N.3     1  UNL1       -0.2724
      3 C          61.0464   87.9025    9.0348 C.3     1  UNL1        0.0724
      4 C          62.0280   86.7911    8.8077 C.3     1  UNL1        0.0214
      5 C          62.9266   85.5918    8.8699 C.3     1  UNL1        0.0072
      6 C          62.0502   85.9337   10.0382 C.3     1  UNL1        0.0350
      7 C          61.0825   86.5151   11.0258 C.3     1  UNL1        0.0761
      8 C          62.4874   84.7884   10.9026 C.ar    1  UNL1       -0.0215
      9 C          62.3025   84.8579   12.3896 C.ar    1  UNL1       -0.0043
     10 C          62.7397   83.7126   13.2541 C.ar    1  UNL1        0.0035
     11 C          63.3617   82.4979   12.6316 C.ar    1  UNL1        0.0714
     12 C          63.5466   82.4284   11.1445 C.ar    1  UNL1        0.0035
     13 C          63.1094   83.5737   10.2801 C.ar    1  UNL1       -0.0043
     14 C          63.7989   81.3526   13.4960 C.3     1  UNL1        0.4186
     15 F          64.2361   80.2074   14.3604 F       1  UNL1       -0.1659
     16 F          63.2972   80.3840   12.4664 F       1  UNL1       -0.1659
     17 F          64.3006   82.3212   14.5256 F       1  UNL1       -0.1659
     18 C          59.8655   89.6843   12.0126 C.3     1  UNL1        0.0294
     19 C          61.1706   90.3969   11.8153 C.3     1  UNL1        0.0666
     20 S          62.3529   90.0468   12.6695 S.3     1  UNL1       -0.0756
     21 C          63.7544   91.4688   10.0882 C.3     1  UNL1        0.1340
     22 N          64.1927   91.6057   11.5163 N.ar    1  UNL1       -0.2884
     23 C          63.5485   90.9521   12.7027 C.ar    1  UNL1        0.1932
     24 N          64.3098   91.3627   13.9282 N.ar    1  UNL1       -0.1221
     25 N          65.4244   92.2700   13.4992 N.ar    1  UNL1       -0.1282
     26 C          65.3521   92.4202   12.0085 C.ar    1  UNL1        0.1684
     27 C          66.2768   93.2410   11.1591 C.ar    1  UNL1        0.0585
     28 C          66.0411   94.7138   11.0010 C.ar    1  UNL1        0.0272
     29 C          66.9658   95.5345   10.1517 C.ar    1  UNL1        0.1223
     30 N          68.1263   94.8822    9.4604 N.ar    1  UNL1       -0.1464
     31 N          68.3621   93.4094    9.6185 N.ar    1  UNL1       -0.1463
     32 C          67.4373   92.5887   10.4678 C.ar    1  UNL1        0.1252
@<TRIPOS>BOND
     1    21    22    1
     2    22    23   ar
     3    23    20    1
     4    20    19    1
     5    19    18    1
     6    18     1    1
     7     1     2    1
     8     2     3    1
     9     4     3    1
    10     4     5    1
    11     5     6    1
    12     6     8    1
    13     8     9   ar
    14     9    10   ar
    15    10    11   ar
    16    11    14    1
    17    14    15    1
    18    14    16    1
    19    14    17    1
    20    11    12   ar
    21    12    13   ar
    22     6     7    1
    23    23    24   ar
    24    24    25   ar
    25    25    26   ar
    26    26    27    1
    27    27    28   ar
    28    28    29   ar
    29    29    30   ar
    30    30    31   ar
    31    31    32   ar
    32    26    22   ar
    33    32    27   ar
    34     7     2    1
    35     6     4    1
    36    13     8   ar
@<TRIPOS>MOLECULE
*****
 32 36 0 0 0
SMALL
GASTEIGER

@<TRIPOS>ATOM
      1 C          59.5502   88.7343   11.0759 C.3     1  UNL1        0.0730
      2 N          60.5091   87.7990   10.4008 N.3     1  UNL1       -0.2724
      3 C          61.0087   87.9146    8.9912 C.3     1  UNL1        0.0724
      4 C          61.9451   86.7710    8.7359 C.3     1  UNL1        0.0214
      5 C          62.8151   85.5498    8.7772 C.3     1  UNL1        0.0072
      6 C          62.0243   85.9485    9.9878 C.3     1  UNL1        0.0350
      7 C          61.1368   86.5838   11.0168 C.3     1  UNL1        0.0761
      8 C          62.4867   84.8167   10.8569 C.ar    1  UNL1       -0.0215
      9 C          63.1755   83.6335   10.2440 C.ar    1  UNL1       -0.0043
     10 C          63.6379   82.5017   11.1131 C.ar    1  UNL1        0.0035
     11 C          63.4115   82.5531   12.5950 C.ar    1  UNL1        0.0714
     12 C          62.7227   83.7364   13.2079 C.ar    1  UNL1        0.0035
     13 C          62.2603   84.8681   12.3388 C.ar    1  UNL1       -0.0043
     14 C          63.8739   81.4213   13.4641 C.3     1  UNL1        0.4186
     15 F          64.3362   80.2895   14.3331 F       1  UNL1       -0.1659
     16 F          64.3392   82.4045   14.4969 F       1  UNL1       -0.1659
     17 F          63.4086   80.4381   12.4312 F       1  UNL1       -0.1659
     18 C          60.0649   89.7975   12.0003 C.3     1  UNL1        0.0294
     19 C          61.0109   90.8429   11.4882 C.3     1  UNL1        0.0666
     20 S          62.4512   90.4987   11.2493 S.3     1  UNL1       -0.0756
     21 C          65.0226   92.4926   11.4980 C.3     1  UNL1        0.1340
     22 N          64.6119   91.4543   12.4997 N.ar    1  UNL1       -0.2884
     23 C          63.4300   90.5378   12.3853 C.ar    1  UNL1        0.1932
     24 N          63.3987   89.6673   13.6064 N.ar    1  UNL1       -0.1221
     25 N          64.5612   90.0457   14.4754 N.ar    1  UNL1       -0.1282
     26 C          65.3111   91.1502   13.7913 C.ar    1  UNL1        0.1684
     27 C          66.5437   91.8310   14.3084 C.ar    1  UNL1        0.0585
     28 C          66.4879   92.6139   15.5866 C.ar    1  UNL1        0.0272
     29 C          67.7205   93.2947   16.1035 C.ar    1  UNL1        0.1223
     30 N          69.0089   93.1925   15.3422 N.ar    1  UNL1       -0.1464
     31 N          69.0648   92.4095   14.0640 N.ar    1  UNL1       -0.1463
     32 C          67.8321   91.7288   13.5471 C.ar    1  UNL1        0.1252
@<TRIPOS>BOND
     1    21    22    1
     2    22    23   ar
     3    23    20    1
     4    20    19    1
     5    19    18    1
     6    18     1    1
     7     1     2    1
     8     2     3    1
     9     4     3    1
    10     4     5    1
    11     5     6    1
    12     6     8    1
    13     8     9   ar
    14     9    10   ar
    15    10    11   ar
    16    11    14    1
    17    14    15    1
    18    14    16    1
    19    14    17    1
    20    11    12   ar
    21    12    13   ar
    22     6     7    1
    23    23    24   ar
    24    24    25   ar
    25    25    26   ar
    26    26    27    1
    27    27    28   ar
    28    28    29   ar
    29    29    30   ar
    30    30    31   ar
    31    31    32   ar
    32    26    22   ar
    33    32    27   ar
    34     7     2    1
    35     6     4    1
    36    13     8   ar
@<TRIPOS>MOLECULE
*****
 32 36 0 0 0
SMALL
GASTEIGER

@<TRIPOS>ATOM
      1 C          64.1445   88.8879   15.3865 C.3     1  UNL1        0.0730
      2 N          63.9400   89.5832   14.0732 N.3     1  UNL1       -0.2724
      3 C          64.5553   90.8875   13.6609 C.3     1  UNL1        0.0724
      4 C          64.0799   91.2067   12.2744 C.3     1  UNL1        0.0214
      5 C          63.4482   91.2552   10.9149 C.3     1  UNL1        0.0072
      6 C          63.1707   90.0995   11.8299 C.3     1  UNL1        0.0350
      7 C          63.0843   89.0962   12.9416 C.3     1  UNL1        0.0761
      8 C          62.2569   89.3709   10.8896 C.ar    1  UNL1       -0.0215
      9 C          61.1267   90.1006   10.2262 C.ar    1  UNL1       -0.0043
     10 C          60.2128   89.3720    9.2859 C.ar    1  UNL1        0.0035
     11 C          60.4293   87.9137    9.0090 C.ar    1  UNL1        0.0714
     12 C          61.5597   87.1841    9.6725 C.ar    1  UNL1        0.0035
     13 C          62.4735   87.9127   10.6127 C.ar    1  UNL1       -0.0043
     14 C          59.5156   87.1851    8.0687 C.3     1  UNL1        0.4186
     15 F          58.6018   86.4565    7.1285 F       1  UNL1       -0.1659
     16 F          58.9687   88.4953    7.5849 F       1  UNL1       -0.1659
     17 F          60.0625   85.8748    8.5526 F       1  UNL1       -0.1659
     18 C          63.1932   89.1315   16.5202 C.3     1  UNL1        0.0294
     19 C          62.7523   87.9901   17.3879 C.3     1  UNL1        0.0666
     20 S          63.4014   86.6454   17.2452 S.3     1  UNL1       -0.0756
     21 C          65.2583   85.7859   14.7030 C.3     1  UNL1        0.1340
     22 N          63.8499   85.3369   14.9579 N.ar    1  UNL1       -0.2884
     23 C          62.9964   85.7320   16.1264 C.ar    1  UNL1        0.1932
     24 N          61.6668   85.0533   15.9797 N.ar    1  UNL1       -0.1221
     25 N          61.6986   84.2388   14.7206 N.ar    1  UNL1       -0.1282
     26 C          63.0478   84.4141   14.0890 C.ar    1  UNL1        0.1684
     27 C          63.5132   83.7782   12.8126 C.ar    1  UNL1        0.0585
     28 C          63.1836   84.4136   11.4944 C.ar    1  UNL1        0.0272
     29 C          63.6490   83.7776   10.2181 C.ar    1  UNL1        0.1223
     30 N          64.4441   82.5063   10.2600 N.ar    1  UNL1       -0.1464
     31 N          64.7737   81.8710   11.5782 N.ar    1  UNL1       -0.1463
     32 C          64.3083   82.5069   12.8545 C.ar    1  UNL1        0.1252
@<TRIPOS>BOND
     1    21    22    1
     2    22    23   ar
     3    23    20    1
     4    20    19    1
     5    19    18    1
     6    18     1    1
     7     1     2    1
     8     2     3    1
     9     4     3    1
    10     4     5    1
    11     5     6    1
    12     6     8    1
    13     8     9   ar
    14     9    10   ar
    15    10    11   ar
    16    11    14    1
    17    14    15    1
    18    14    16    1
    19    14    17    1
    20    11    12   ar
    21    12    13   ar
    22     6     7    1
    23    23    24   ar
    24    24    25   ar
    25    25    26   ar
    26    26    27    1
    27    27    28   ar
    28    28    29   ar
    29    29    30   ar
    30    30    31   ar
    31    31    32   ar
    32    26    22   ar
    33    32    27   ar
    34     7     2    1
    35     6     4    1
    36    13     8   ar
@<TRIPOS>MOLECULE
*****
 32 36 0 0 0
SMALL
GASTEIGER

@<TRIPOS>ATOM
      1 C          64.3988   87.6948   15.2423 C.3     1  UNL1        0.0730
      2 N          63.8955   86.4128   14.6478 N.3     1  UNL1       -0.2724
      3 C          63.6802   85.1240   15.3844 C.3     1  UNL1        0.0724
      4 C          63.1709   84.1093   14.4042 C.3     1  UNL1        0.0214
      5 C          62.6853   83.3300   13.2181 C.3     1  UNL1        0.0072
      6 C          63.0714   84.7710   13.0617 C.3     1  UNL1        0.0350
      7 C          63.5192   86.1946   13.2123 C.3     1  UNL1        0.0761
      8 C          62.7758   84.8540   11.5935 C.ar    1  UNL1       -0.0215
      9 C          61.6950   85.7677   11.0966 C.ar    1  UNL1       -0.0043
     10 C          61.3993   85.8508    9.6282 C.ar    1  UNL1        0.0035
     11 C          62.1845   85.0201    8.6569 C.ar    1  UNL1        0.0714
     12 C          63.2654   84.1064    9.1539 C.ar    1  UNL1        0.0035
     13 C          63.5610   84.0233   10.6221 C.ar    1  UNL1       -0.0043
     14 C          61.8889   85.1032    7.1887 C.3     1  UNL1        0.4186
     15 F          61.5933   85.1862    5.7205 F       1  UNL1       -0.1659
     16 F          60.5194   85.6332    7.4944 F       1  UNL1       -0.1659
     17 F          63.2585   84.5732    6.8830 F       1  UNL1       -0.1659
     18 C          63.4536   88.6084   15.9647 C.3     1  UNL1        0.0294
     19 C          63.3477   90.0492   15.5613 C.3     1  UNL1        0.0666
     20 S          63.5010   90.4379   14.1205 S.3     1  UNL1       -0.0756
     21 C          64.1216   91.4565   11.0830 C.3     1  UNL1        0.1340
     22 N          64.7769   91.9626   12.3339 N.ar    1  UNL1       -0.2884
     23 C          64.4916   91.4944   13.7300 C.ar    1  UNL1        0.1932
     24 N          65.3709   92.2681   14.6671 N.ar    1  UNL1       -0.1221
     25 N          66.1995   93.2145   13.8502 N.ar    1  UNL1       -0.1282
     26 C          65.8324   93.0257   12.4081 C.ar    1  UNL1        0.1684
     27 C          66.4181   93.7695   11.2445 C.ar    1  UNL1        0.0585
     28 C          67.2628   93.0443   10.2392 C.ar    1  UNL1        0.0272
     29 C          67.8484   93.7881    9.0757 C.ar    1  UNL1        0.1223
     30 N          67.5894   95.2571    8.9175 N.ar    1  UNL1       -0.1464
     31 N          66.7447   95.9822    9.9227 N.ar    1  UNL1       -0.1463
     32 C          66.1591   95.2384   11.0862 C.ar    1  UNL1        0.1252
@<TRIPOS>BOND
     1    21    22    1
     2    22    23   ar
     3    23    20    1
     4    20    19    1
     5    19    18    1
     6    18     1    1
     7     1     2    1
     8     2     3    1
     9     4     3    1
    10     4     5    1
    11     5     6    1
    12     6     8    1
    13     8     9   ar
    14     9    10   ar
    15    10    11   ar
    16    11    14    1
    17    14    15    1
    18    14    16    1
    19    14    17    1
    20    11    12   ar
    21    12    13   ar
    22     6     7    1
    23    23    24   ar
    24    24    25   ar
    25    25    26   ar
    26    26    27    1
    27    27    28   ar
    28    28    29   ar
    29    29    30   ar
    30    30    31   ar
    31    31    32   ar
    32    26    22   ar
    33    32    27   ar
    34     7     2    1
    35     6     4    1
    36    13     8   ar
@<TRIPOS>MOLECULE
*****
 32 36 0 0 0
SMALL
GASTEIGER

@<TRIPOS>ATOM
      1 C          63.3410   84.3849    8.9425 C.3     1  UNL1        0.0730
      2 N          63.5148   83.6801   10.2551 N.3     1  UNL1       -0.2724
      3 C          63.8175   82.2226   10.4400 C.3     1  UNL1        0.0724
      4 C          63.9062   81.9507   11.9125 C.3     1  UNL1        0.0214
      5 C          63.9327   81.9851   13.4119 C.3     1  UNL1        0.0072
      6 C          63.6583   83.2402   12.6377 C.3     1  UNL1        0.0350
      7 C          63.4164   84.3090   11.6134 C.3     1  UNL1        0.0761
      8 C          63.5026   84.1315   13.8341 C.ar    1  UNL1       -0.0215
      9 C          64.5933   85.0943   14.1991 C.ar    1  UNL1       -0.0043
     10 C          64.4376   85.9856   15.3955 C.ar    1  UNL1        0.0035
     11 C          63.1911   85.9141   16.2269 C.ar    1  UNL1        0.0714
     12 C          62.1003   84.9512   15.8618 C.ar    1  UNL1        0.0035
     13 C          62.2560   84.0600   14.6654 C.ar    1  UNL1       -0.0043
     14 C          63.0353   86.8054   17.4232 C.3     1  UNL1        0.4186
     15 F          62.8796   87.6967   18.6196 F       1  UNL1       -0.1659
     16 F          62.4819   85.6538   18.2091 F       1  UNL1       -0.1659
     17 F          63.5888   87.9569   16.6374 F       1  UNL1       -0.1659
     18 C          62.9714   85.8383    8.9148 C.3     1  UNL1        0.0294
     19 C          61.5278   86.2447    8.8873 C.3     1  UNL1        0.0666
     20 S          60.9258   86.9542   10.0639 S.3     1  UNL1       -0.0756
     21 C          63.1055   87.5583   12.4162 C.3     1  UNL1        0.1340
     22 N          62.4387   88.5835   11.5476 N.ar    1  UNL1       -0.2884
     23 C          61.4368   88.3058   10.4664 C.ar    1  UNL1        0.1932
     24 N          61.0356   89.6171    9.8584 N.ar    1  UNL1       -0.1221
     25 N          61.7896   90.7051   10.5638 N.ar    1  UNL1       -0.1282
     26 C          62.6567   90.0663   11.6078 C.ar    1  UNL1        0.1684
     27 C          63.5799   90.7844   12.5472 C.ar    1  UNL1        0.0585
     28 C          63.5848   90.4362   14.0062 C.ar    1  UNL1        0.0272
     29 C          64.5079   91.1543   14.9455 C.ar    1  UNL1        0.1223
     30 N          65.4261   92.2205   14.4257 N.ar    1  UNL1       -0.1464
     31 N          65.4212   92.5686   12.9667 N.ar    1  UNL1       -0.1463
     32 C          64.4981   91.8506   12.0274 C.ar    1  UNL1        0.1252
@<TRIPOS>BOND
     1    21    22    1
     2    22    23   ar
     3    23    20    1
     4    20    19    1
     5    19    18    1
     6    18     1    1
     7     1     2    1
     8     2     3    1
     9     4     3    1
    10     4     5    1
    11     5     6    1
    12     6     8    1
    13     8     9   ar
    14     9    10   ar
    15    10    11   ar
    16    11    14    1
    17    14    15    1
    18    14    16    1
    19    14    17    1
    20    11    12   ar
    21    12    13   ar
    22     6     7    1
    23    23    24   ar
    24    24    25   ar
    25    25    26   ar
    26    26    27    1
    27    27    28   ar
    28    28    29   ar
    29    29    30   ar
    30    30    31   ar
    31    31    32   ar
    32    26    22   ar
    33    32    27   ar
    34     7     2    1
    35     6     4    1
    36    13     8   ar
