@<TRIPOS>MOLECULE
*****
 33 37 0 0 0
SMALL
GASTEIGER

@<TRIPOS>ATOM
      1 C          62.9968   86.2847   12.4689 C.2     1  UNL1        0.2506
      2 O          63.5668   87.1758   13.5323 O.2     1  UNL1       -0.2699
      3 N          62.1740   86.8714   11.3604 N.am    1  UNL1       -0.2723
      4 C          61.6039   85.9802   10.2970 C.3     1  UNL1        0.1257
      5 C          60.7811   86.5670    9.1885 C.3     1  UNL1        0.1637
      6 O          60.5284   88.0448    9.1434 O.3     1  UNL1       -0.3502
      7 C          61.0985   88.9360   10.2068 C.3     1  UNL1        0.1622
      8 C          61.9212   88.3493   11.3153 C.3     1  UNL1        0.1096
      9 C          63.9497   81.8054   10.0137 C.3     1  UNL1        0.0310
     10 C          63.7260   82.5671   11.2864 C.ar    1  UNL1       -0.0216
     11 C          63.7550   81.8511   12.6041 C.ar    1  UNL1       -0.0026
     12 C          63.5313   82.6129   13.8767 C.ar    1  UNL1        0.0207
     13 C          63.2786   84.0907   13.8317 C.ar    1  UNL1        0.1072
     14 C          63.2495   84.8068   12.5140 C.ar    1  UNL1        0.0726
     15 C          63.4733   84.0450   11.2413 C.ar    1  UNL1        0.0018
     16 N          63.0548   84.8525   15.1043 N.ar    1  UNL1       -0.1477
     17 N          61.7357   85.0593   15.7879 N.ar    1  UNL1       -0.1447
     18 C          61.9766   85.8758   17.0229 C.ar    1  UNL1        0.1446
     19 C          63.4445   86.1737   17.1027 C.ar    1  UNL1        0.1446
     20 N          64.1109   85.5412   15.9169 N.ar    1  UNL1       -0.1447
     21 C          62.4913   89.2404   12.3787 C.3     1  UNL1        0.0488
     22 C          63.4286   90.3501   12.0043 C.ar    1  UNL1       -0.0189
     23 C          63.3233   90.9976   10.6555 C.ar    1  UNL1       -0.0044
     24 C          64.2606   92.1073   10.2810 C.ar    1  UNL1       -0.0030
     25 C          65.3031   92.5694   11.2555 C.ar    1  UNL1       -0.0025
     26 C          66.2403   93.6790   10.8811 C.3     1  UNL1        0.0327
     27 C          65.4083   91.9218   12.6044 C.ar    1  UNL1        0.0986
     28 C          64.4711   90.8121   12.9788 C.ar    1  UNL1        0.0164
     29 N          66.4509   92.3838   13.5789 N.ar    1  UNL1       -0.1481
     30 N          66.2301   93.3246   14.7262 N.ar    1  UNL1       -0.1447
     31 C          67.5400   93.5085   15.4335 C.ar    1  UNL1        0.1446
     32 C          68.5704   92.6813   14.7235 C.ar    1  UNL1        0.1446
     33 N          67.8973   91.9862   13.5772 N.ar    1  UNL1       -0.1447
@<TRIPOS>BOND
     1     9    10    1
     2    10    11   ar
     3    11    12   ar
     4    12    13   ar
     5    13    16    1
     6    16    17   ar
     7    17    18   ar
     8    18    19   ar
     9    19    20   ar
    10    13    14   ar
    11    14     1    1
    12     1     2    2
    13     1     3   am
    14     3     4    1
    15     4     5    1
    16     5     6    1
    17     6     7    1
    18     7     8    1
    19     8    21    1
    20    21    22    1
    21    22    23   ar
    22    23    24   ar
    23    24    25   ar
    24    25    26    1
    25    25    27   ar
    26    27    29    1
    27    29    30   ar
    28    30    31   ar
    29    31    32   ar
    30    32    33   ar
    31    27    28   ar
    32    14    15   ar
    33    15    10   ar
    34    20    16   ar
    35     8     3    1
    36    28    22   ar
    37    33    29   ar
@<TRIPOS>MOLECULE
*****
 33 37 0 0 0
SMALL
GASTEIGER

@<TRIPOS>ATOM
      1 C          62.7221   87.2289   11.7701 C.2     1  UNL1        0.2506
      2 O          63.3820   87.3322   13.1132 O.2     1  UNL1       -0.2699
      3 N          61.9010   88.3704   11.2481 N.am    1  UNL1       -0.2723
      4 C          61.2411   88.2671    9.9050 C.3     1  UNL1        0.1257
      5 C          60.4199   89.4087    9.3830 C.3     1  UNL1        0.1637
      6 O          60.2586   90.6536   10.2040 O.3     1  UNL1       -0.3502
      7 C          60.9185   90.7569   11.5471 C.3     1  UNL1        0.1622
      8 C          61.7396   89.6154   12.0692 C.3     1  UNL1        0.1096
      9 C          62.8024   84.8706    7.1406 C.3     1  UNL1        0.0310
     10 C          62.9236   84.8048    8.6343 C.ar    1  UNL1       -0.0216
     11 C          63.2061   83.4942    9.3068 C.ar    1  UNL1       -0.0026
     12 C          63.3273   83.4284   10.8005 C.ar    1  UNL1        0.0207
     13 C          63.1660   84.6733   11.6216 C.ar    1  UNL1        0.1072
     14 C          62.8835   85.9839   10.9490 C.ar    1  UNL1        0.0726
     15 C          62.7623   86.0497    9.4554 C.ar    1  UNL1        0.0018
     16 N          63.2872   84.6075   13.1152 N.ar    1  UNL1       -0.1477
     17 N          64.5680   84.5656   13.8949 N.ar    1  UNL1       -0.1447
     18 C          64.2213   84.5043   15.3530 C.ar    1  UNL1        0.1446
     19 C          62.7262   84.5083   15.4745 C.ar    1  UNL1        0.1446
     20 N          62.1490   84.5721   14.0915 N.ar    1  UNL1       -0.1447
     21 C          62.3995   89.7187   13.4123 C.3     1  UNL1        0.0488
     22 C          63.5997   90.6001   13.5924 C.ar    1  UNL1       -0.0189
     23 C          64.2137   90.7625   14.9513 C.ar    1  UNL1       -0.0044
     24 C          65.4141   91.6439   15.1315 C.ar    1  UNL1       -0.0030
     25 C          66.0004   92.3628   13.9527 C.ar    1  UNL1       -0.0025
     26 C          67.2006   93.2442   14.1328 C.3     1  UNL1        0.0327
     27 C          65.3863   92.2003   12.5938 C.ar    1  UNL1        0.0986
     28 C          64.1860   91.3190   12.4137 C.ar    1  UNL1        0.0164
     29 N          65.9726   92.9192   11.4150 N.ar    1  UNL1       -0.1481
     30 N          66.9978   92.3698   10.4679 N.ar    1  UNL1       -0.1447
     31 C          67.2955   93.4248    9.4439 C.ar    1  UNL1        0.1446
     32 C          66.4542   94.6262    9.7582 C.ar    1  UNL1        0.1446
     33 N          65.6366   94.3138   10.9765 N.ar    1  UNL1       -0.1447
@<TRIPOS>BOND
     1     9    10    1
     2    10    11   ar
     3    11    12   ar
     4    12    13   ar
     5    13    16    1
     6    16    17   ar
     7    17    18   ar
     8    18    19   ar
     9    19    20   ar
    10    13    14   ar
    11    14     1    1
    12     1     2    2
    13     1     3   am
    14     3     4    1
    15     4     5    1
    16     5     6    1
    17     6     7    1
    18     7     8    1
    19     8    21    1
    20    21    22    1
    21    22    23   ar
    22    23    24   ar
    23    24    25   ar
    24    25    26    1
    25    25    27   ar
    26    27    29    1
    27    29    30   ar
    28    30    31   ar
    29    31    32   ar
    30    32    33   ar
    31    27    28   ar
    32    14    15   ar
    33    15    10   ar
    34    20    16   ar
    35     8     3    1
    36    28    22   ar
    37    33    29   ar
@<TRIPOS>MOLECULE
*****
 33 37 0 0 0
SMALL
GASTEIGER

@<TRIPOS>ATOM
      1 C          62.6818   87.3550   11.6868 C.2     1  UNL1        0.2506
      2 O          63.6469   87.8132   12.7397 O.2     1  UNL1       -0.2699
      3 N          61.5341   88.2344   11.2876 N.am    1  UNL1       -0.2723
      4 C          60.5690   87.7762   10.2347 C.3     1  UNL1        0.1257
      5 C          59.4212   88.6556    9.8356 C.3     1  UNL1        0.1637
      6 O          59.2386   89.9932   10.4894 O.3     1  UNL1       -0.3502
      7 C          60.2037   90.4514   11.5423 C.3     1  UNL1        0.1622
      8 C          61.3514   89.5720   11.9414 C.3     1  UNL1        0.1096
      9 C          62.8795   84.4339    7.3940 C.3     1  UNL1        0.0310
     10 C          62.9633   84.5568    8.8866 C.ar    1  UNL1       -0.0216
     11 C          63.2299   83.3422    9.7254 C.ar    1  UNL1       -0.0026
     12 C          63.3137   83.4651   11.2180 C.ar    1  UNL1        0.0207
     13 C          63.1310   84.8027   11.8718 C.ar    1  UNL1        0.1072
     14 C          62.8645   86.0173   11.0330 C.ar    1  UNL1        0.0726
     15 C          62.7807   85.8944    9.5404 C.ar    1  UNL1        0.0018
     16 N          63.2149   84.9256   13.3644 N.ar    1  UNL1       -0.1477
     17 N          64.4472   85.2536   14.1542 N.ar    1  UNL1       -0.1447
     18 C          64.0750   85.2729   15.6072 C.ar    1  UNL1        0.1446
     19 C          62.6127   84.9568   15.7154 C.ar    1  UNL1        0.1446
     20 N          62.0811   84.7422   14.3292 N.ar    1  UNL1       -0.1447
     21 C          62.3165   90.0302   12.9944 C.3     1  UNL1        0.0488
     22 C          63.5022   90.8657   12.6124 C.ar    1  UNL1       -0.0189
     23 C          63.6625   91.3380   11.1978 C.ar    1  UNL1       -0.0044
     24 C          64.8482   92.1736   10.8158 C.ar    1  UNL1       -0.0030
     25 C          65.8737   92.5369   11.8485 C.ar    1  UNL1       -0.0025
     26 C          67.0594   93.3724   11.4666 C.3     1  UNL1        0.0327
     27 C          65.7134   92.0645   13.2632 C.ar    1  UNL1        0.0986
     28 C          64.5277   91.2290   13.6451 C.ar    1  UNL1        0.0164
     29 N          66.7389   92.4278   14.2959 N.ar    1  UNL1       -0.1481
     30 N          67.6333   91.4697   15.0253 N.ar    1  UNL1       -0.1447
     31 C          68.4972   92.2627   15.9607 C.ar    1  UNL1        0.1446
     32 C          68.1367   93.7108   15.8094 C.ar    1  UNL1        0.1446
     33 N          67.0500   93.8129   14.7805 N.ar    1  UNL1       -0.1447
@<TRIPOS>BOND
     1     9    10    1
     2    10    11   ar
     3    11    12   ar
     4    12    13   ar
     5    13    16    1
     6    16    17   ar
     7    17    18   ar
     8    18    19   ar
     9    19    20   ar
    10    13    14   ar
    11    14     1    1
    12     1     2    2
    13     1     3   am
    14     3     4    1
    15     4     5    1
    16     5     6    1
    17     6     7    1
    18     7     8    1
    19     8    21    1
    20    21    22    1
    21    22    23   ar
    22    23    24   ar
    23    24    25   ar
    24    25    26    1
    25    25    27   ar
    26    27    29    1
    27    29    30   ar
    28    30    31   ar
    29    31    32   ar
    30    32    33   ar
    31    27    28   ar
    32    14    15   ar
    33    15    10   ar
    34    20    16   ar
    35     8     3    1
    36    28    22   ar
    37    33    29   ar
@<TRIPOS>MOLECULE
*****
 33 37 0 0 0
SMALL
GASTEIGER

@<TRIPOS>ATOM
      1 C          63.1923   86.8495   12.9735 C.2     1  UNL1        0.2506
      2 O          63.5468   87.5527   14.2502 O.2     1  UNL1       -0.2699
      3 N          62.6484   87.6297   11.8137 N.am    1  UNL1       -0.2723
      4 C          62.2938   86.9265   10.5370 C.3     1  UNL1        0.1257
      5 C          61.7499   87.7068    9.3771 C.3     1  UNL1        0.1637
      6 O          61.5605   89.1901    9.4938 O.3     1  UNL1       -0.3502
      7 C          61.9151   89.8933   10.7705 C.3     1  UNL1        0.1622
      8 C          62.4590   89.1131   11.9304 C.3     1  UNL1        0.1096
      9 C          64.0953   82.6438   10.0586 C.3     1  UNL1        0.0310
     10 C          63.8332   83.2632   11.3993 C.ar    1  UNL1       -0.0216
     11 C          63.7605   82.3993   12.6233 C.ar    1  UNL1       -0.0026
     12 C          63.4984   83.0187   13.9641 C.ar    1  UNL1        0.0207
     13 C          63.3090   84.5021   14.0808 C.ar    1  UNL1        0.1072
     14 C          63.3817   85.3660   12.8568 C.ar    1  UNL1        0.0726
     15 C          63.6438   84.7466   11.5161 C.ar    1  UNL1        0.0018
     16 N          63.0469   85.1215   15.4216 N.ar    1  UNL1       -0.1477
     17 N          64.0785   85.7100   16.3378 N.ar    1  UNL1       -0.1447
     18 C          63.3764   86.2134   17.5640 C.ar    1  UNL1        0.1446
     19 C          61.9108   85.9360   17.4057 C.ar    1  UNL1        0.1446
     20 N          61.7072   85.2611   16.0816 N.ar    1  UNL1       -0.1447
     21 C          62.8135   89.8163   13.2070 C.3     1  UNL1        0.0488
     22 C          64.1221   90.5397   13.3263 C.ar    1  UNL1       -0.0189
     23 C          65.0222   90.2736   14.4963 C.ar    1  UNL1       -0.0044
     24 C          66.3308   90.9970   14.6157 C.ar    1  UNL1       -0.0030
     25 C          66.7393   91.9866   13.5651 C.ar    1  UNL1       -0.0025
     26 C          68.0478   92.7100   13.6844 C.3     1  UNL1        0.0327
     27 C          65.8391   92.2528   12.3950 C.ar    1  UNL1        0.0986
     28 C          64.5305   91.5293   12.2757 C.ar    1  UNL1        0.0164
     29 N          66.2475   93.2424   11.3444 N.ar    1  UNL1       -0.1481
     30 N          66.9250   92.9201   10.0455 N.ar    1  UNL1       -0.1447
     31 C          67.1464   94.2066    9.3065 C.ar    1  UNL1        0.1446
     32 C          66.6057   95.3239   10.1487 C.ar    1  UNL1        0.1446
     33 N          66.0502   94.7280   11.4082 N.ar    1  UNL1       -0.1447
@<TRIPOS>BOND
     1     9    10    1
     2    10    11   ar
     3    11    12   ar
     4    12    13   ar
     5    13    16    1
     6    16    17   ar
     7    17    18   ar
     8    18    19   ar
     9    19    20   ar
    10    13    14   ar
    11    14     1    1
    12     1     2    2
    13     1     3   am
    14     3     4    1
    15     4     5    1
    16     5     6    1
    17     6     7    1
    18     7     8    1
    19     8    21    1
    20    21    22    1
    21    22    23   ar
    22    23    24   ar
    23    24    25   ar
    24    25    26    1
    25    25    27   ar
    26    27    29    1
    27    29    30   ar
    28    30    31   ar
    29    31    32   ar
    30    32    33   ar
    31    27    28   ar
    32    14    15   ar
    33    15    10   ar
    34    20    16   ar
    35     8     3    1
    36    28    22   ar
    37    33    29   ar
@<TRIPOS>MOLECULE
*****
 33 37 0 0 0
SMALL
GASTEIGER

@<TRIPOS>ATOM
      1 C          62.6124   88.3838   11.5654 C.2     1  UNL1        0.2506
      2 O          62.6130   89.8831   11.6094 O.2     1  UNL1       -0.2699
      3 N          63.2472   87.6006   12.6761 N.am    1  UNL1       -0.2723
      4 C          63.2466   86.1012   12.6320 C.3     1  UNL1        0.1257
      5 C          63.8814   85.3180   13.7428 C.3     1  UNL1        0.1637
      6 O          64.5167   86.0342   14.8975 O.3     1  UNL1       -0.3502
      7 C          64.5173   87.5336   14.9416 C.3     1  UNL1        0.1622
      8 C          63.8825   88.3168   13.8309 C.3     1  UNL1        0.1096
      9 C          62.9195   84.9384    7.6878 C.3     1  UNL1        0.0310
     10 C          62.1307   85.9449    8.4718 C.ar    1  UNL1       -0.0216
     11 C          60.7066   86.2353    8.1010 C.ar    1  UNL1       -0.0026
     12 C          59.9177   87.2419    8.8850 C.ar    1  UNL1        0.0207
     13 C          60.5530   87.9580   10.0398 C.ar    1  UNL1        0.1072
     14 C          61.9771   87.6676   10.4106 C.ar    1  UNL1        0.0726
     15 C          62.7659   86.6611    9.6266 C.ar    1  UNL1        0.0018
     16 N          59.7641   88.9645   10.8238 N.ar    1  UNL1       -0.1477
     17 N          59.0227   88.7025   12.1011 N.ar    1  UNL1       -0.1447
     18 C          58.3786   89.9858   12.5348 C.ar    1  UNL1        0.1446
     19 C          58.7219   91.0411   11.5256 C.ar    1  UNL1        0.1446
     20 N          59.5782   90.4098   10.4681 N.ar    1  UNL1       -0.1447
     21 C          63.8831   89.8161   13.8749 C.3     1  UNL1        0.0488
     22 C          65.1822   90.5659   13.8780 C.ar    1  UNL1       -0.0189
     23 C          66.0267   90.5979   15.1173 C.ar    1  UNL1       -0.0044
     24 C          67.3259   91.3477   15.1204 C.ar    1  UNL1       -0.0030
     25 C          67.7806   92.0654   13.8842 C.ar    1  UNL1       -0.0025
     26 C          69.0797   92.8151   13.8872 C.3     1  UNL1        0.0327
     27 C          66.9361   92.0333   12.6449 C.ar    1  UNL1        0.0986
     28 C          65.6369   91.2835   12.6418 C.ar    1  UNL1        0.0164
     29 N          67.3908   92.7510   11.4087 N.ar    1  UNL1       -0.1481
     30 N          66.9714   94.1269   10.9834 N.ar    1  UNL1       -0.1447
     31 C          67.6661   94.4451    9.6926 C.ar    1  UNL1        0.1446
     32 C          68.5148   93.2657    9.3200 C.ar    1  UNL1        0.1446
     33 N          68.3447   92.2186   10.3806 N.ar    1  UNL1       -0.1447
@<TRIPOS>BOND
     1     9    10    1
     2    10    11   ar
     3    11    12   ar
     4    12    13   ar
     5    13    16    1
     6    16    17   ar
     7    17    18   ar
     8    18    19   ar
     9    19    20   ar
    10    13    14   ar
    11    14     1    1
    12     1     2    2
    13     1     3   am
    14     3     4    1
    15     4     5    1
    16     5     6    1
    17     6     7    1
    18     7     8    1
    19     8    21    1
    20    21    22    1
    21    22    23   ar
    22    23    24   ar
    23    24    25   ar
    24    25    26    1
    25    25    27   ar
    26    27    29    1
    27    29    30   ar
    28    30    31   ar
    29    31    32   ar
    30    32    33   ar
    31    27    28   ar
    32    14    15   ar
    33    15    10   ar
    34    20    16   ar
    35     8     3    1
    36    28    22   ar
    37    33    29   ar
@<TRIPOS>MOLECULE
*****
 33 37 0 0 0
SMALL
GASTEIGER

@<TRIPOS>ATOM
      1 C          62.3605   84.8745   12.1651 C.2     1  UNL1        0.2506
      2 O          61.8201   85.9801   13.0228 O.2     1  UNL1       -0.2699
      3 N          62.5434   85.0892   10.6919 N.am    1  UNL1       -0.2723
      4 C          63.0839   83.9836    9.8343 C.3     1  UNL1        0.1257
      5 C          63.2668   84.1983    8.3610 C.3     1  UNL1        0.1637
      6 O          62.9093   85.5186    7.7454 O.3     1  UNL1       -0.3502
      7 C          62.3688   86.6242    8.6030 C.3     1  UNL1        0.1622
      8 C          62.1859   86.4095   10.0763 C.3     1  UNL1        0.1096
      9 C          62.6604   79.6965   11.8505 C.3     1  UNL1        0.0310
     10 C          62.8680   80.9652   12.6234 C.ar    1  UNL1       -0.0216
     11 C          63.4330   80.9135   14.0119 C.ar    1  UNL1       -0.0026
     12 C          63.6406   82.1822   14.7848 C.ar    1  UNL1        0.0207
     13 C          63.2831   83.5025   14.1693 C.ar    1  UNL1        0.1072
     14 C          62.7180   83.5541   12.7808 C.ar    1  UNL1        0.0726
     15 C          62.5105   82.2855   12.0078 C.ar    1  UNL1        0.0018
     16 N          63.4907   84.7711   14.9422 N.ar    1  UNL1       -0.1477
     17 N          62.7154   85.2039   16.1511 N.ar    1  UNL1       -0.1447
     18 C          63.2555   86.5300   16.5980 C.ar    1  UNL1        0.1446
     19 C          64.3647   86.9168   15.6652 C.ar    1  UNL1        0.1446
     20 N          64.5100   85.8298   14.6419 N.ar    1  UNL1       -0.1447
     21 C          61.6455   87.5151   10.9339 C.3     1  UNL1        0.0488
     22 C          62.3716   88.8251   11.0145 C.ar    1  UNL1       -0.0189
     23 C          62.4908   89.6926    9.7966 C.ar    1  UNL1       -0.0044
     24 C          63.2170   91.0027    9.8771 C.ar    1  UNL1       -0.0030
     25 C          63.8239   91.4452   11.1755 C.ar    1  UNL1       -0.0025
     26 C          64.5500   92.7553   11.2561 C.3     1  UNL1        0.0327
     27 C          63.7046   90.5777   12.3934 C.ar    1  UNL1        0.0986
     28 C          62.9785   89.2677   12.3129 C.ar    1  UNL1        0.0164
     29 N          64.3115   91.0202   13.6918 N.ar    1  UNL1       -0.1481
     30 N          63.5926   91.1511   15.0018 N.ar    1  UNL1       -0.1447
     31 C          64.5806   91.6214   16.0278 C.ar    1  UNL1        0.1446
     32 C          65.9102   91.7811   15.3519 C.ar    1  UNL1        0.1446
     33 N          65.7439   91.4096   13.9082 N.ar    1  UNL1       -0.1447
@<TRIPOS>BOND
     1     9    10    1
     2    10    11   ar
     3    11    12   ar
     4    12    13   ar
     5    13    16    1
     6    16    17   ar
     7    17    18   ar
     8    18    19   ar
     9    19    20   ar
    10    13    14   ar
    11    14     1    1
    12     1     2    2
    13     1     3   am
    14     3     4    1
    15     4     5    1
    16     5     6    1
    17     6     7    1
    18     7     8    1
    19     8    21    1
    20    21    22    1
    21    22    23   ar
    22    23    24   ar
    23    24    25   ar
    24    25    26    1
    25    25    27   ar
    26    27    29    1
    27    29    30   ar
    28    30    31   ar
    29    31    32   ar
    30    32    33   ar
    31    27    28   ar
    32    14    15   ar
    33    15    10   ar
    34    20    16   ar
    35     8     3    1
    36    28    22   ar
    37    33    29   ar
