@<TRIPOS>MOLECULE
*****
 45 49 0 0 0
SMALL
GASTEIGER

@<TRIPOS>ATOM
      1 C          61.6929   87.2866   10.0171 C.ar    1  UNL1        0.0611
      2 C          61.6274   85.7921    9.9065 C.ar    1  UNL1        0.0112
      3 C          62.1840   84.9338   11.0036 C.ar    1  UNL1        0.0208
      4 C          62.8060   85.5700   12.2112 C.ar    1  UNL1        0.1218
      5 N          62.8715   87.0645   12.3218 N.ar    1  UNL1       -0.2421
      6 C          62.3149   87.9228   11.2247 C.ar    1  UNL1        0.1068
      7 C          63.3626   84.7117   13.3083 C.3     1  UNL1        0.3254
      8 F          61.9964   84.1438   13.0608 F       1  UNL1       -0.1949
      9 F          64.6317   85.5111   13.2898 F       1  UNL1       -0.1949
     10 C          63.9192   83.8534   14.4054 C.3     1  UNL1        0.1932
     11 O          64.4757   82.9952   15.5025 O.3     1  UNL1       -0.3755
     12 H          64.8433   83.5601   16.2000 H       1  UNL1        0.2110
     13 C          63.5130   82.6234   13.6491 C.ar    1  UNL1        0.0368
     14 C          62.4915   81.6900   14.2282 C.ar    1  UNL1        0.0028
     15 C          62.0854   80.4600   13.4719 C.ar    1  UNL1        0.0295
     16 C          62.7007   80.1632   12.1365 C.ar    1  UNL1        0.1424
     17 F          62.2946   78.9332   11.3802 F       1  UNL1       -0.2041
     18 C          63.7222   81.0966   11.5574 C.ar    1  UNL1        0.0590
     19 C          64.1284   82.3267   12.3137 C.ar    1  UNL1        0.1408
     20 F          65.1499   83.2600   11.7346 F       1  UNL1       -0.2043
     21 C          64.3253   85.0835   15.1617 C.3     1  UNL1        0.1679
     22 N          63.3078   85.8432   15.9601 N.ar    1  UNL1       -0.2078
     23 C          63.4300   87.2661   16.4183 C.ar    1  UNL1        0.2216
     24 N          62.1870   87.6156   17.1820 N.ar    1  UNL1       -0.1048
     25 N          61.2966   86.4086   17.1957 N.ar    1  UNL1       -0.0226
     26 N          61.9893   85.3131   16.4405 N.ar    1  UNL1       -0.0428
     27 C          60.5798   89.0032    7.8230 C.1     1  UNL1       -0.0597
     28 C          61.1363   88.1449    8.9200 C.1     1  UNL1       -0.0582
     29 C          58.9101   91.5781    4.5317 C.ar    1  UNL1        0.1391
     30 C          60.3944   91.4233    4.6830 C.ar    1  UNL1        0.0375
     31 C          60.9510   90.5650    5.7801 C.ar    1  UNL1        0.0114
     32 C          60.0232   89.8615    6.7259 C.ar    1  UNL1        0.0422
     33 C          58.5389   90.0163    6.5746 C.ar    1  UNL1        0.0114
     34 C          57.9824   90.8746    5.4775 C.ar    1  UNL1        0.0375
     35 O          58.3535   92.4364    3.4347 O.3     1  UNL1       -0.4706
     36 C          59.0293   92.4743    2.0961 C.3     1  UNL1        0.2321
     37 C          62.7007   95.0072    1.5001 C.ar    1  UNL1        0.0958
     38 C          61.3535   95.6557    1.6200 C.ar    1  UNL1        0.0123
     39 C          60.1297   94.8114    1.8187 C.ar    1  UNL1        0.0001
     40 C          60.2531   93.3186    1.8974 C.ar    1  UNL1        0.0234
     41 C          61.6003   92.6701    1.7774 C.ar    1  UNL1        0.0296
     42 C          62.8241   93.5144    1.5788 C.ar    1  UNL1        0.1495
     43 F          64.1713   92.8658    1.4588 F       1  UNL1       -0.2035
     44 N          65.1483   96.6958    1.1027 N.1     1  UNL1       -0.1908
     45 C          63.9245   95.8515    1.3014 C.1     1  UNL1        0.1027
@<TRIPOS>BOND
     1    44    45    3
     2    45    37    1
     3    37    38   ar
     4    38    39   ar
     5    39    40   ar
     6    40    36    1
     7    36    35    1
     8    35    29    1
     9    29    30   ar
    10    30    31   ar
    11    31    32   ar
    12    32    27    1
    13    27    28    3
    14    28     1    1
    15     1     2   ar
    16     2     3   ar
    17     3     4   ar
    18     4     7    1
    19     7     8    1
    20     7     9    1
    21     7    10    1
    22    10    11    1
    23    10    21    1
    24    21    22    1
    25    22    23   ar
    26    23    24   ar
    27    24    25   ar
    28    25    26   ar
    29    10    13    1
    30    13    14   ar
    31    14    15   ar
    32    15    16   ar
    33    16    17    1
    34    16    18   ar
    35    18    19   ar
    36    19    20    1
    37     4     5   ar
    38     5     6   ar
    39    32    33   ar
    40    33    34   ar
    41    40    41   ar
    42    41    42   ar
    43    42    43    1
    44    42    37   ar
    45    34    29   ar
    46     6     1   ar
    47    26    22   ar
    48    19    13   ar
    49    11    12    1
@<TRIPOS>MOLECULE
*****
 45 49 0 0 0
SMALL
GASTEIGER

@<TRIPOS>ATOM
      1 C          61.7719   87.2733   10.0388 C.ar    1  UNL1        0.0611
      2 C          61.7434   85.7780    9.9232 C.ar    1  UNL1        0.0112
      3 C          62.2946   84.9295   11.0306 C.ar    1  UNL1        0.0208
      4 C          62.8742   85.5764   12.2536 C.ar    1  UNL1        0.1218
      5 N          62.9026   87.0716   12.3692 N.ar    1  UNL1       -0.2421
      6 C          62.3515   87.9201   11.2617 C.ar    1  UNL1        0.1068
      7 C          63.4253   84.7279   13.3610 C.3     1  UNL1        0.3254
      8 F          62.0037   84.2686   13.2249 F       1  UNL1       -0.1949
      9 F          64.7529   85.4128   13.2251 F       1  UNL1       -0.1949
     10 C          63.9764   83.8794   14.4685 C.3     1  UNL1        0.1932
     11 O          64.5275   83.0310   15.5759 O.3     1  UNL1       -0.3755
     12 H          64.9109   83.6016   16.2602 H       1  UNL1        0.2110
     13 C          63.5424   82.6435   13.7375 C.ar    1  UNL1        0.0368
     14 C          62.4817   81.7593   14.3232 C.ar    1  UNL1        0.0028
     15 C          62.0478   80.5234   13.5923 C.ar    1  UNL1        0.0295
     16 C          62.6745   80.1718   12.2757 C.ar    1  UNL1        0.1424
     17 F          62.2406   78.9359   11.5448 F       1  UNL1       -0.2041
     18 C          63.7352   81.0560   11.6900 C.ar    1  UNL1        0.0590
     19 C          64.1692   82.2919   12.4209 C.ar    1  UNL1        0.1408
     20 F          65.2299   83.1761   11.8352 F       1  UNL1       -0.2043
     21 C          64.4104   85.1153   15.1994 C.3     1  UNL1        0.1679
     22 N          63.4088   85.9186   15.9750 N.ar    1  UNL1       -0.2078
     23 C          62.2292   85.3719   16.7230 C.ar    1  UNL1        0.2216
     24 N          61.5023   86.5251   17.3491 N.ar    1  UNL1       -0.1048
     25 N          62.2327   87.7845   16.9879 N.ar    1  UNL1       -0.0226
     26 N          63.4110   87.4097   16.1387 N.ar    1  UNL1       -0.0428
     27 C          60.6697   88.9702    7.8239 C.1     1  UNL1       -0.0597
     28 C          61.2208   88.1217    8.9313 C.1     1  UNL1       -0.0582
     29 C          59.0164   91.5156    4.5016 C.ar    1  UNL1        0.1391
     30 C          58.0852   90.8537    5.4738 C.ar    1  UNL1        0.0375
     31 C          58.6364   90.0053    6.5812 C.ar    1  UNL1        0.0114
     32 C          60.1186   89.8187    6.7165 C.ar    1  UNL1        0.0422
     33 C          61.0496   90.4805    5.7444 C.ar    1  UNL1        0.0114
     34 C          60.4985   91.3290    4.6369 C.ar    1  UNL1        0.0375
     35 O          58.4653   92.3640    3.3942 O.3     1  UNL1       -0.4706
     36 C          59.2560   93.5292    2.8775 C.3     1  UNL1        0.2321
     37 C          61.5325   93.1669   -0.9873 C.ar    1  UNL1        0.0958
     38 C          62.2677   93.4206    0.2953 C.ar    1  UNL1        0.0123
     39 C          61.5089   93.5414    1.5836 C.ar    1  UNL1        0.0001
     40 C          60.0148   93.4084    1.5893 C.ar    1  UNL1        0.0234
     41 C          59.2796   93.1547    0.3067 C.ar    1  UNL1        0.0296
     42 C          60.0384   93.0340   -0.9816 C.ar    1  UNL1        0.1495
     43 F          59.3031   92.7803   -2.2642 F       1  UNL1       -0.2035
     44 N          63.0501   92.9254   -3.5638 N.1     1  UNL1       -0.1908
     45 C          62.2913   93.0462   -2.2755 C.1     1  UNL1        0.1027
@<TRIPOS>BOND
     1    44    45    3
     2    45    37    1
     3    37    38   ar
     4    38    39   ar
     5    39    40   ar
     6    40    36    1
     7    36    35    1
     8    35    29    1
     9    29    30   ar
    10    30    31   ar
    11    31    32   ar
    12    32    27    1
    13    27    28    3
    14    28     1    1
    15     1     2   ar
    16     2     3   ar
    17     3     4   ar
    18     4     7    1
    19     7     8    1
    20     7     9    1
    21     7    10    1
    22    10    11    1
    23    10    21    1
    24    21    22    1
    25    22    23   ar
    26    23    24   ar
    27    24    25   ar
    28    25    26   ar
    29    10    13    1
    30    13    14   ar
    31    14    15   ar
    32    15    16   ar
    33    16    17    1
    34    16    18   ar
    35    18    19   ar
    36    19    20    1
    37     4     5   ar
    38     5     6   ar
    39    32    33   ar
    40    33    34   ar
    41    40    41   ar
    42    41    42   ar
    43    42    43    1
    44    42    37   ar
    45    34    29   ar
    46     6     1   ar
    47    26    22   ar
    48    19    13   ar
    49    11    12    1
@<TRIPOS>MOLECULE
*****
 45 49 0 0 0
SMALL
GASTEIGER

@<TRIPOS>ATOM
      1 C          61.7479   87.4475    9.8671 C.ar    1  UNL1        0.0611
      2 C          61.7842   85.9537    9.7349 C.ar    1  UNL1        0.0112
      3 C          62.3282   85.1149   10.8532 C.ar    1  UNL1        0.0208
      4 C          62.8359   85.7698   12.1035 C.ar    1  UNL1        0.1218
      5 N          62.7996   87.2635   12.2356 N.ar    1  UNL1       -0.2421
      6 C          62.2556   88.1024   11.1174 C.ar    1  UNL1        0.1068
      7 C          63.3799   84.9310   13.2218 C.3     1  UNL1        0.3254
      8 F          62.0244   84.3462   12.9556 F       1  UNL1       -0.1949
      9 F          64.6412   85.7429   13.2172 F       1  UNL1       -0.1949
     10 C          63.9239   84.0922   14.3400 C.3     1  UNL1        0.1932
     11 O          64.4679   83.2534   15.4582 O.3     1  UNL1       -0.3755
     12 H          64.8400   83.8302   16.1436 H       1  UNL1        0.2110
     13 C          63.5059   82.8496   13.6112 C.ar    1  UNL1        0.0368
     14 C          62.4489   81.9584   14.1931 C.ar    1  UNL1        0.0028
     15 C          62.0309   80.7158   13.4643 C.ar    1  UNL1        0.0295
     16 C          62.6699   80.3643   12.1536 C.ar    1  UNL1        0.1424
     17 F          62.2519   79.1217   11.4248 F       1  UNL1       -0.2041
     18 C          63.7268   81.2554   11.5716 C.ar    1  UNL1        0.0590
     19 C          64.1448   82.4980   12.3004 C.ar    1  UNL1        0.1408
     20 F          65.2018   83.3892   11.7184 F       1  UNL1       -0.2043
     21 C          64.3419   85.3348   15.0688 C.3     1  UNL1        0.1679
     22 N          63.3576   86.0632   15.9351 N.ar    1  UNL1       -0.2078
     23 C          62.2505   85.4371   16.7302 C.ar    1  UNL1        0.2216
     24 N          61.5162   86.5326   17.4449 N.ar    1  UNL1       -0.1048
     25 N          62.1694   87.8358   17.0915 N.ar    1  UNL1       -0.0226
     26 N          63.3075   87.5457   16.1584 N.ar    1  UNL1       -0.0428
     27 C          60.6599   89.1252    7.6306 C.1     1  UNL1       -0.0597
     28 C          61.2039   88.2863    8.7488 C.1     1  UNL1       -0.0582
     29 C          59.0279   91.6416    4.2759 C.ar    1  UNL1        0.1391
     30 C          58.0899   90.9749    5.2382 C.ar    1  UNL1        0.0375
     31 C          58.6339   90.1361    6.3564 C.ar    1  UNL1        0.0114
     32 C          60.1159   89.9640    6.5124 C.ar    1  UNL1        0.0422
     33 C          61.0538   90.6307    5.5502 C.ar    1  UNL1        0.0114
     34 C          60.5098   91.4695    4.4320 C.ar    1  UNL1        0.0375
     35 O          58.4839   92.4805    3.1577 O.3     1  UNL1       -0.4706
     36 C          59.4202   93.1187    2.1749 C.3     1  UNL1        0.2321
     37 C          58.4842   93.0042   -2.2252 C.ar    1  UNL1        0.0958
     38 C          59.8502   93.4128   -1.7594 C.ar    1  UNL1        0.0123
     39 C          60.1622   93.4510   -0.2927 C.ar    1  UNL1        0.0001
     40 C          59.1082   93.0806    0.7082 C.ar    1  UNL1        0.0234
     41 C          57.7422   92.6720    0.2424 C.ar    1  UNL1        0.0296
     42 C          57.4302   92.6338   -1.2243 C.ar    1  UNL1        0.1495
     43 F          56.0641   92.2252   -1.6901 F       1  UNL1       -0.2035
     44 N          57.8603   92.9279   -5.1586 N.1     1  UNL1       -0.1908
     45 C          58.1723   92.9661   -3.6919 C.1     1  UNL1        0.1027
@<TRIPOS>BOND
     1    44    45    3
     2    45    37    1
     3    37    38   ar
     4    38    39   ar
     5    39    40   ar
     6    40    36    1
     7    36    35    1
     8    35    29    1
     9    29    30   ar
    10    30    31   ar
    11    31    32   ar
    12    32    27    1
    13    27    28    3
    14    28     1    1
    15     1     2   ar
    16     2     3   ar
    17     3     4   ar
    18     4     7    1
    19     7     8    1
    20     7     9    1
    21     7    10    1
    22    10    11    1
    23    10    21    1
    24    21    22    1
    25    22    23   ar
    26    23    24   ar
    27    24    25   ar
    28    25    26   ar
    29    10    13    1
    30    13    14   ar
    31    14    15   ar
    32    15    16   ar
    33    16    17    1
    34    16    18   ar
    35    18    19   ar
    36    19    20    1
    37     4     5   ar
    38     5     6   ar
    39    32    33   ar
    40    33    34   ar
    41    40    41   ar
    42    41    42   ar
    43    42    43    1
    44    42    37   ar
    45    34    29   ar
    46     6     1   ar
    47    26    22   ar
    48    19    13   ar
    49    11    12    1
@<TRIPOS>MOLECULE
*****
 45 49 0 0 0
SMALL
GASTEIGER

@<TRIPOS>ATOM
      1 C          61.4647   87.5621    9.3679 C.ar    1  UNL1        0.0611
      2 C          61.9097   86.1602    9.0733 C.ar    1  UNL1        0.0112
      3 C          62.4042   85.2813   10.1838 C.ar    1  UNL1        0.0208
      4 C          62.4535   85.8043   11.5889 C.ar    1  UNL1        0.1218
      5 N          62.0085   87.2062   11.8834 N.ar    1  UNL1       -0.2421
      6 C          61.5140   88.0850   10.7729 C.ar    1  UNL1        0.1068
      7 C          62.9479   84.9255   12.6993 C.3     1  UNL1        0.3254
      8 F          61.6277   85.4333   13.1987 F       1  UNL1       -0.1949
      9 F          64.1852   84.6213   11.9077 F       1  UNL1       -0.1949
     10 C          63.4423   84.0466   13.8098 C.3     1  UNL1        0.1932
     11 O          63.9367   83.1677   14.9203 O.3     1  UNL1       -0.3755
     12 H          64.0483   82.2623   14.5907 H       1  UNL1        0.2110
     13 C          63.4341   85.2210   14.7429 C.ar    1  UNL1        0.0368
     14 C          64.1922   86.4658   14.3886 C.ar    1  UNL1        0.0028
     15 C          64.1839   87.6402   15.3217 C.ar    1  UNL1        0.0295
     16 C          63.4175   87.5697   16.6092 C.ar    1  UNL1        0.1424
     17 F          63.4093   88.7441   17.5424 F       1  UNL1       -0.2041
     18 C          62.6595   86.3249   16.9636 C.ar    1  UNL1        0.0590
     19 C          62.6677   85.1505   16.0304 C.ar    1  UNL1        0.1408
     20 F          61.9096   83.9056   16.3849 F       1  UNL1       -0.2043
     21 C          63.4506   82.8722   12.8767 C.3     1  UNL1        0.1679
     22 N          62.6303   81.6569   13.1932 N.ar    1  UNL1       -0.2078
     23 C          62.9224   80.2552   12.7464 C.ar    1  UNL1        0.2216
     24 N          61.8465   79.3619   13.2893 N.ar    1  UNL1       -0.1048
     25 N          60.8894   80.2117   14.0716 N.ar    1  UNL1       -0.0226
     26 N          61.3739   81.6301   14.0122 N.ar    1  UNL1       -0.0428
     27 C          60.4759   89.3198    7.1470 C.1     1  UNL1       -0.0597
     28 C          60.9703   88.4410    8.2575 C.1     1  UNL1       -0.0582
     29 C          58.9926   91.9565    3.8156 C.ar    1  UNL1        0.1391
     30 C          60.4629   91.7061    3.9760 C.ar    1  UNL1        0.0375
     31 C          60.9573   90.8273    5.0864 C.ar    1  UNL1        0.0114
     32 C          59.9815   90.1987    6.0365 C.ar    1  UNL1        0.0422
     33 C          58.5112   90.4491    5.8762 C.ar    1  UNL1        0.0114
     34 C          58.0168   91.3280    4.7657 C.ar    1  UNL1        0.0375
     35 O          58.4982   92.8354    2.7051 O.3     1  UNL1       -0.4706
     36 C          59.4399   93.2824    1.6266 C.3     1  UNL1        0.2321
     37 C          58.2405   92.9295   -2.6962 C.ar    1  UNL1        0.0958
     38 C          57.2272   92.6959   -1.6152 C.ar    1  UNL1        0.0123
     39 C          57.6270   92.8136   -0.1743 C.ar    1  UNL1        0.0001
     40 C          59.0401   93.1648    0.1857 C.ar    1  UNL1        0.0234
     41 C          60.0535   93.3983   -0.8953 C.ar    1  UNL1        0.0296
     42 C          59.6537   93.2807   -2.3362 C.ar    1  UNL1        0.1495
     43 F          60.6671   93.5142   -3.4172 F       1  UNL1       -0.2035
     44 N          57.4409   92.6941   -5.5781 N.1     1  UNL1       -0.1908
     45 C          57.8407   92.8118   -4.1371 C.1     1  UNL1        0.1027
@<TRIPOS>BOND
     1    44    45    3
     2    45    37    1
     3    37    38   ar
     4    38    39   ar
     5    39    40   ar
     6    40    36    1
     7    36    35    1
     8    35    29    1
     9    29    30   ar
    10    30    31   ar
    11    31    32   ar
    12    32    27    1
    13    27    28    3
    14    28     1    1
    15     1     2   ar
    16     2     3   ar
    17     3     4   ar
    18     4     7    1
    19     7     8    1
    20     7     9    1
    21     7    10    1
    22    10    11    1
    23    10    21    1
    24    21    22    1
    25    22    23   ar
    26    23    24   ar
    27    24    25   ar
    28    25    26   ar
    29    10    13    1
    30    13    14   ar
    31    14    15   ar
    32    15    16   ar
    33    16    17    1
    34    16    18   ar
    35    18    19   ar
    36    19    20    1
    37     4     5   ar
    38     5     6   ar
    39    32    33   ar
    40    33    34   ar
    41    40    41   ar
    42    41    42   ar
    43    42    43    1
    44    42    37   ar
    45    34    29   ar
    46     6     1   ar
    47    26    22   ar
    48    19    13   ar
    49    11    12    1
@<TRIPOS>MOLECULE
*****
 45 49 0 0 0
SMALL
GASTEIGER

@<TRIPOS>ATOM
      1 C          61.4234   87.5615    9.4618 C.ar    1  UNL1        0.0611
      2 C          62.1681   88.1652   10.6156 C.ar    1  UNL1        0.0112
      3 C          62.6817   87.2876   11.7184 C.ar    1  UNL1        0.0208
      4 C          62.4506   85.8063   11.6674 C.ar    1  UNL1        0.1218
      5 N          61.7059   85.2027   10.5136 N.ar    1  UNL1       -0.2421
      6 C          61.1923   86.0803    9.4109 C.ar    1  UNL1        0.1068
      7 C          62.9641   84.9287   12.7701 C.3     1  UNL1        0.3254
      8 F          61.7058   85.5203   13.3331 F       1  UNL1       -0.1949
      9 F          64.1328   84.5379   11.9149 F       1  UNL1       -0.1949
     10 C          63.4777   84.0511   13.8729 C.3     1  UNL1        0.1932
     11 O          63.9913   83.1735   14.9756 O.3     1  UNL1       -0.3755
     12 H          64.1260   82.2745   14.6373 H       1  UNL1        0.2110
     13 C          63.4383   85.2154   14.8178 C.ar    1  UNL1        0.0368
     14 C          64.1889   86.4723   14.4910 C.ar    1  UNL1        0.0028
     15 C          64.1495   87.6366   15.4359 C.ar    1  UNL1        0.0295
     16 C          63.3595   87.5440   16.7076 C.ar    1  UNL1        0.1424
     17 F          63.3201   88.7083   17.6525 F       1  UNL1       -0.2041
     18 C          62.6088   86.2872   17.0344 C.ar    1  UNL1        0.0590
     19 C          62.6482   85.1229   16.0895 C.ar    1  UNL1        0.1408
     20 F          61.8975   83.8660   16.4163 F       1  UNL1       -0.2043
     21 C          63.5171   82.8868   12.9280 C.3     1  UNL1        0.1679
     22 N          62.6870   81.6684   13.2041 N.ar    1  UNL1       -0.2078
     23 C          62.8824   80.3118   12.5948 C.ar    1  UNL1        0.2216
     24 N          61.8317   79.3976   13.1521 N.ar    1  UNL1       -0.1048
     25 N          60.9870   80.1892   14.1059 N.ar    1  UNL1       -0.0226
     26 N          61.5156   81.5927   14.1380 N.ar    1  UNL1       -0.0428
     27 C          60.3963   89.3167    7.2563 C.1     1  UNL1       -0.0597
     28 C          60.9099   88.4391    8.3591 C.1     1  UNL1       -0.0582
     29 C          58.8556   91.9494    3.9480 C.ar    1  UNL1        0.1391
     30 C          60.3325   91.7584    4.1284 C.ar    1  UNL1        0.0375
     31 C          60.8460   90.8808    5.2311 C.ar    1  UNL1        0.0114
     32 C          59.8827   90.1942    6.1535 C.ar    1  UNL1        0.0422
     33 C          58.4060   90.3853    5.9732 C.ar    1  UNL1        0.0114
     34 C          57.8924   91.2629    4.8704 C.ar    1  UNL1        0.0375
     35 O          58.3420   92.8270    2.8452 O.3     1  UNL1       -0.4706
     36 C          59.0888   92.9150    1.5473 C.3     1  UNL1        0.2321
     37 C          62.9110   95.2777    1.3062 C.ar    1  UNL1        0.0958
     38 C          61.5963   95.9889    1.4315 C.ar    1  UNL1        0.0123
     39 C          60.3222   95.2013    1.5119 C.ar    1  UNL1        0.0001
     40 C          60.3628   93.7026    1.4670 C.ar    1  UNL1        0.0234
     41 C          61.6775   92.9914    1.3417 C.ar    1  UNL1        0.0296
     42 C          62.9516   93.7789    1.2613 C.ar    1  UNL1        0.1495
     43 F          64.2664   93.0677    1.1361 F       1  UNL1       -0.2035
     44 N          65.4592   96.8528    1.1455 N.1     1  UNL1       -0.1908
     45 C          64.1851   96.0652    1.2259 C.1     1  UNL1        0.1027
@<TRIPOS>BOND
     1    44    45    3
     2    45    37    1
     3    37    38   ar
     4    38    39   ar
     5    39    40   ar
     6    40    36    1
     7    36    35    1
     8    35    29    1
     9    29    30   ar
    10    30    31   ar
    11    31    32   ar
    12    32    27    1
    13    27    28    3
    14    28     1    1
    15     1     2   ar
    16     2     3   ar
    17     3     4   ar
    18     4     7    1
    19     7     8    1
    20     7     9    1
    21     7    10    1
    22    10    11    1
    23    10    21    1
    24    21    22    1
    25    22    23   ar
    26    23    24   ar
    27    24    25   ar
    28    25    26   ar
    29    10    13    1
    30    13    14   ar
    31    14    15   ar
    32    15    16   ar
    33    16    17    1
    34    16    18   ar
    35    18    19   ar
    36    19    20    1
    37     4     5   ar
    38     5     6   ar
    39    32    33   ar
    40    33    34   ar
    41    40    41   ar
    42    41    42   ar
    43    42    43    1
    44    42    37   ar
    45    34    29   ar
    46     6     1   ar
    47    26    22   ar
    48    19    13   ar
    49    11    12    1
@<TRIPOS>MOLECULE
*****
 45 49 0 0 0
SMALL
GASTEIGER

@<TRIPOS>ATOM
      1 C          60.2883   91.4838    4.4216 C.ar    1  UNL1        0.0611
      2 C          61.5133   91.7815    3.6086 C.ar    1  UNL1        0.0112
      3 C          61.4019   92.6005    2.3568 C.ar    1  UNL1        0.0208
      4 C          60.0656   93.1217    1.9180 C.ar    1  UNL1        0.1218
      5 N          58.8406   92.8240    2.7309 N.ar    1  UNL1       -0.2421
      6 C          58.9520   92.0050    3.9827 C.ar    1  UNL1        0.1068
      7 C          59.9542   93.9406    0.6662 C.3     1  UNL1        0.3254
      8 F          60.4489   92.6084    0.1857 F       1  UNL1       -0.1949
      9 F          59.4722   95.1092    1.4736 F       1  UNL1       -0.1949
     10 C          59.8428   94.7595   -0.5856 C.3     1  UNL1        0.1932
     11 O          59.7315   95.5784   -1.8374 O.3     1  UNL1       -0.3755
     12 H          58.8036   95.6163   -2.1175 H       1  UNL1        0.2110
     13 C          61.3254   94.9869   -0.5687 C.ar    1  UNL1        0.0368
     14 C          61.9182   96.0000    0.3651 C.ar    1  UNL1        0.0028
     15 C          63.4008   96.2274    0.3820 C.ar    1  UNL1        0.0295
     16 C          64.2905   95.4416   -0.5350 C.ar    1  UNL1        0.1424
     17 F          65.7731   95.6690   -0.5182 F       1  UNL1       -0.2041
     18 C          63.6977   94.4285   -1.4689 C.ar    1  UNL1        0.0590
     19 C          62.2152   94.2011   -1.4857 C.ar    1  UNL1        0.1408
     20 F          61.6223   93.1880   -2.4196 F       1  UNL1       -0.2043
     21 C          58.3603   94.5321   -0.6024 C.3     1  UNL1        0.1679
     22 N          57.7606   93.5667   -1.5814 N.ar    1  UNL1       -0.2078
     23 C          56.3443   93.0729   -1.5778 C.ar    1  UNL1        0.2216
     24 N          56.1804   92.1265   -2.7301 N.ar    1  UNL1       -0.1048
     25 N          57.4955   92.0354   -3.4458 N.ar    1  UNL1       -0.0226
     26 N          58.4721   92.9255   -2.7359 N.ar    1  UNL1       -0.0428
     27 C          60.5110   89.8460    6.9251 C.1     1  UNL1       -0.0597
     28 C          60.3997   90.6649    5.6734 C.1     1  UNL1       -0.0582
     29 C          60.8451   87.3893   10.6805 C.ar    1  UNL1        0.1391
     30 C          60.4825   86.7300    9.3828 C.ar    1  UNL1        0.0375
     31 C          60.3712   87.5489    8.1310 C.ar    1  UNL1        0.0114
     32 C          60.6224   89.0271    8.1769 C.ar    1  UNL1        0.0422
     33 C          60.9850   89.6862    9.4746 C.ar    1  UNL1        0.0114
     34 C          61.0963   88.8673   10.7264 C.ar    1  UNL1        0.0375
     35 O          60.9565   86.5703   11.9323 O.3     1  UNL1       -0.4706
     36 C          62.2765   85.9758   12.3246 C.3     1  UNL1        0.2321
     37 C          62.5637   81.5983   13.3271 C.ar    1  UNL1        0.0958
     38 C          62.3000   82.6003   14.4117 C.ar    1  UNL1        0.0123
     39 C          62.2043   84.0595   14.0775 C.ar    1  UNL1        0.0001
     40 C          62.3723   84.5166   12.6588 C.ar    1  UNL1        0.0234
     41 C          62.6360   83.5146   11.5742 C.ar    1  UNL1        0.0296
     42 C          62.7317   82.0554   11.9084 C.ar    1  UNL1        0.1495
     43 F          62.9954   81.0533   10.8237 F       1  UNL1       -0.2035
     44 N          62.7552   78.6800   13.9954 N.1     1  UNL1       -0.1908
     45 C          62.6595   80.1391   13.6613 C.1     1  UNL1        0.1027
@<TRIPOS>BOND
     1    44    45    3
     2    45    37    1
     3    37    38   ar
     4    38    39   ar
     5    39    40   ar
     6    40    36    1
     7    36    35    1
     8    35    29    1
     9    29    30   ar
    10    30    31   ar
    11    31    32   ar
    12    32    27    1
    13    27    28    3
    14    28     1    1
    15     1     2   ar
    16     2     3   ar
    17     3     4   ar
    18     4     7    1
    19     7     8    1
    20     7     9    1
    21     7    10    1
    22    10    11    1
    23    10    21    1
    24    21    22    1
    25    22    23   ar
    26    23    24   ar
    27    24    25   ar
    28    25    26   ar
    29    10    13    1
    30    13    14   ar
    31    14    15   ar
    32    15    16   ar
    33    16    17    1
    34    16    18   ar
    35    18    19   ar
    36    19    20    1
    37     4     5   ar
    38     5     6   ar
    39    32    33   ar
    40    33    34   ar
    41    40    41   ar
    42    41    42   ar
    43    42    43    1
    44    42    37   ar
    45    34    29   ar
    46     6     1   ar
    47    26    22   ar
    48    19    13   ar
    49    11    12    1
@<TRIPOS>MOLECULE
*****
 45 49 0 0 0
SMALL
GASTEIGER

@<TRIPOS>ATOM
      1 C          60.5004   90.9975    4.9740 C.ar    1  UNL1        0.0611
      2 C          59.1660   91.5986    4.6451 C.ar    1  UNL1        0.0112
      3 C          59.0031   92.4320    3.4086 C.ar    1  UNL1        0.0208
      4 C          60.1747   92.6644    2.5011 C.ar    1  UNL1        0.1218
      5 N          61.5090   92.0634    2.8300 N.ar    1  UNL1       -0.2421
      6 C          61.6719   91.2300    4.0665 C.ar    1  UNL1        0.1068
      7 C          60.0118   93.4978    1.2646 C.3     1  UNL1        0.3254
      8 F          59.8156   94.4726    2.3878 F       1  UNL1       -0.1949
      9 F          60.2546   92.2854    0.4154 F       1  UNL1       -0.1949
     10 C          59.8489   94.3312    0.0281 C.3     1  UNL1        0.1932
     11 O          59.6860   95.1646   -1.2084 O.3     1  UNL1       -0.3755
     12 H          58.7508   95.1829   -1.4651 H       1  UNL1        0.2110
     13 C          61.3253   94.5959    0.0120 C.ar    1  UNL1        0.0368
     14 C          62.2460   93.6662   -0.7214 C.ar    1  UNL1        0.0028
     15 C          63.7224   93.9308   -0.7375 C.ar    1  UNL1        0.0295
     16 C          64.2781   95.1252   -0.0202 C.ar    1  UNL1        0.1424
     17 F          65.7544   95.3899   -0.0362 F       1  UNL1       -0.2041
     18 C          63.3574   96.0549    0.7133 C.ar    1  UNL1        0.0590
     19 C          61.8810   95.7903    0.7293 C.ar    1  UNL1        0.1408
     20 F          60.9603   96.7201    1.4628 F       1  UNL1       -0.2043
     21 C          58.3725   94.0665    0.0442 C.3     1  UNL1        0.1679
     22 N          57.6883   93.5576   -1.1898 N.ar    1  UNL1       -0.2078
     23 C          56.2531   93.7871   -1.5604 C.ar    1  UNL1        0.2216
     24 N          55.9970   93.1011   -2.8696 N.ar    1  UNL1       -0.1048
     25 N          57.2739   92.4477   -3.3081 N.ar    1  UNL1       -0.0226
     26 N          58.3193   92.7298   -2.2700 N.ar    1  UNL1       -0.0428
     27 C          60.8262   89.3307    7.4470 C.1     1  UNL1       -0.0597
     28 C          60.6633   90.1641    6.2105 C.1     1  UNL1       -0.0582
     29 C          61.3148   86.8305   11.1564 C.ar    1  UNL1        0.1391
     30 C          61.5444   88.3117   11.2148 C.ar    1  UNL1        0.0375
     31 C          61.3815   89.1451    9.9783 C.ar    1  UNL1        0.0114
     32 C          60.9891   88.4973    8.6835 C.ar    1  UNL1        0.0422
     33 C          60.7596   87.0161    8.6252 C.ar    1  UNL1        0.0114
     34 C          60.9224   86.1827    9.8617 C.ar    1  UNL1        0.0375
     35 O          61.4777   85.9970   12.3929 O.3     1  UNL1       -0.4706
     36 C          62.7231   85.1850   12.5914 C.3     1  UNL1        0.2321
     37 C          62.8298   80.8763   11.2978 C.ar    1  UNL1        0.0958
     38 C          63.3328   81.9484   10.3772 C.ar    1  UNL1        0.0123
     39 C          63.2973   83.3846   10.8084 C.ar    1  UNL1        0.0001
     40 C          62.7587   83.7488   12.1602 C.ar    1  UNL1        0.0234
     41 C          62.2557   82.6766   13.0808 C.ar    1  UNL1        0.0296
     42 C          62.2913   81.2404   12.6496 C.ar    1  UNL1        0.1495
     43 F          61.7882   80.1682   13.5702 F       1  UNL1       -0.2035
     44 N          62.9009   78.0038   10.4354 N.1     1  UNL1       -0.1908
     45 C          62.8654   79.4400   10.8666 C.1     1  UNL1        0.1027
@<TRIPOS>BOND
     1    44    45    3
     2    45    37    1
     3    37    38   ar
     4    38    39   ar
     5    39    40   ar
     6    40    36    1
     7    36    35    1
     8    35    29    1
     9    29    30   ar
    10    30    31   ar
    11    31    32   ar
    12    32    27    1
    13    27    28    3
    14    28     1    1
    15     1     2   ar
    16     2     3   ar
    17     3     4   ar
    18     4     7    1
    19     7     8    1
    20     7     9    1
    21     7    10    1
    22    10    11    1
    23    10    21    1
    24    21    22    1
    25    22    23   ar
    26    23    24   ar
    27    24    25   ar
    28    25    26   ar
    29    10    13    1
    30    13    14   ar
    31    14    15   ar
    32    15    16   ar
    33    16    17    1
    34    16    18   ar
    35    18    19   ar
    36    19    20    1
    37     4     5   ar
    38     5     6   ar
    39    32    33   ar
    40    33    34   ar
    41    40    41   ar
    42    41    42   ar
    43    42    43    1
    44    42    37   ar
    45    34    29   ar
    46     6     1   ar
    47    26    22   ar
    48    19    13   ar
    49    11    12    1
