@<TRIPOS>MOLECULE
*****
 43 46 0 0 0
SMALL
GASTEIGER

@<TRIPOS>ATOM
      1 N          62.0022   89.5156   12.2540 N.3     1  UNL1       -0.2699
      2 C          59.4079   89.6554   12.2562 C.3     1  UNL1        0.0188
      3 C          60.7295   90.0489   11.6658 C.3     1  UNL1        0.0722
      4 C          62.5339   90.0875   13.5347 C.3     1  UNL1        0.0924
      5 C          64.0018   90.3584   13.6827 C.3     1  UNL1        0.0950
      6 N          64.6323   91.5001   12.9415 N.am    1  UNL1       -0.2706
      7 C          65.4374   92.5239   13.6855 C.2     1  UNL1        0.4020
      8 O          65.6120   92.4062   15.1706 O.2     1  UNL1       -0.2264
      9 H          64.5176   91.5773   11.9668 H       1  UNL1        0.1527
     10 O          66.0678   93.6654   12.9443 O.3     1  UNL1       -0.4274
     11 C          65.7853   93.8588   11.4839 C.3     1  UNL1        0.2621
     12 C          66.8356   93.5254   10.4662 C.ar    1  UNL1        0.1323
     13 N          67.7689   92.3521   10.5142 N.ar    1  UNL1       -0.2374
     14 C          68.6472   92.4084    9.2995 C.ar    1  UNL1        0.1062
     15 C          68.2567   93.6166    8.5008 C.ar    1  UNL1        0.0573
     16 S          67.1371   94.3069    9.2219 S.2     1  UNL1       -0.0666
     17 C          64.8392   89.4878   14.5719 C.3     1  UNL1        0.0474
     18 C          64.2024   88.3680   15.3403 C.ar    1  UNL1       -0.0205
     19 C          64.4065   86.9476   14.9034 C.ar    1  UNL1       -0.0042
     20 C          63.7697   85.8277   15.6719 C.ar    1  UNL1       -0.0003
     21 C          62.9289   86.1283   16.8772 C.ar    1  UNL1       -0.0000
     22 C          62.7249   87.5487   17.3141 C.ar    1  UNL1       -0.0003
     23 C          63.3617   88.6685   16.5456 C.ar    1  UNL1       -0.0042
     24 C          62.7431   88.4105   11.5614 C.3     1  UNL1        0.0924
     25 C          62.0147   87.4883   10.6293 C.3     1  UNL1        0.0950
     26 N          61.7716   87.8980    9.2070 N.am    1  UNL1       -0.2706
     27 C          60.3699   87.9809    8.6795 C.2     1  UNL1        0.4020
     28 O          59.2112   87.6542    9.5743 O.2     1  UNL1       -0.2264
     29 H          62.5321   88.1124    8.6196 H       1  UNL1        0.1527
     30 O          60.1268   88.3906    7.2571 O.3     1  UNL1       -0.4291
     31 C          58.8586   89.1013    6.8876 C.3     1  UNL1        0.2447
     32 C          58.8961   90.2498    5.9234 C.ar    1  UNL1        0.0714
     33 C          57.7081   91.0046    5.4047 C.ar    1  UNL1        0.1053
     34 N          58.2058   92.0664    4.4694 N.ar    1  UNL1       -0.2350
     35 C          59.7015   91.9678    4.4100 C.ar    1  UNL1        0.1343
     36 S          60.1280   90.8451    5.3087 S.2     1  UNL1       -0.0652
     37 C          61.5293   86.1563   11.1195 C.3     1  UNL1        0.0474
     38 C          62.4692   84.9884   11.1718 C.ar    1  UNL1       -0.0205
     39 C          62.7442   84.3049   12.4785 C.ar    1  UNL1       -0.0042
     40 C          63.6841   83.1371   12.5307 C.ar    1  UNL1       -0.0003
     41 C          64.3489   82.6527   11.2764 C.ar    1  UNL1       -0.0000
     42 C          64.0739   83.3361    9.9698 C.ar    1  UNL1       -0.0003
     43 C          63.1340   84.5040    9.9175 C.ar    1  UNL1       -0.0042
@<TRIPOS>BOND
     1     2     3    1
     2     3     1    1
     3     1    24    1
     4    25    24    1
     5    25    37    1
     6    37    38    1
     7    38    39   ar
     8    39    40   ar
     9    40    41   ar
    10    41    42   ar
    11    42    43   ar
    12    25    26    1
    13    26    27   am
    14    27    28    2
    15    27    30    1
    16    30    31    1
    17    31    32    1
    18    32    33   ar
    19    33    34   ar
    20    34    35   ar
    21    35    36   ar
    22     1     4    1
    23     5     4    1
    24     5    17    1
    25    17    18    1
    26    18    19   ar
    27    19    20   ar
    28    20    21   ar
    29    21    22   ar
    30    22    23   ar
    31     5     6    1
    32     6     7   am
    33     7     8    2
    34     7    10    1
    35    10    11    1
    36    11    12    1
    37    12    13   ar
    38    13    14   ar
    39    14    15   ar
    40    15    16   ar
    41    43    38   ar
    42    36    32   ar
    43    23    18   ar
    44    16    12   ar
    45    26    29    1
    46     6     9    1
@<TRIPOS>MOLECULE
*****
 43 46 0 0 0
SMALL
GASTEIGER

@<TRIPOS>ATOM
      1 N          62.7184   89.7867   12.0094 N.3     1  UNL1       -0.2699
      2 C          63.8308   91.6334   10.5595 C.3     1  UNL1        0.0188
      3 C          62.6138   90.8529   10.9597 C.3     1  UNL1        0.0722
      4 C          62.4333   90.1166   13.4446 C.3     1  UNL1        0.0924
      5 C          63.5633   90.2539   14.4214 C.3     1  UNL1        0.0950
      6 N          64.8085   90.9925   14.0288 N.am    1  UNL1       -0.2706
      7 C          65.3812   92.0357   14.9419 C.2     1  UNL1        0.4020
      8 O          64.7088   92.3403   16.2477 O.2     1  UNL1       -0.2264
      9 H          65.2499   90.7926   13.1718 H       1  UNL1        0.1527
     10 O          66.6263   92.7742   14.5493 O.3     1  UNL1       -0.4274
     11 C          66.5400   93.9498   13.6216 C.3     1  UNL1        0.2621
     12 C          66.7072   93.7531   12.1440 C.ar    1  UNL1        0.1323
     13 N          67.3950   92.5969   11.4807 N.ar    1  UNL1       -0.2374
     14 C          67.3288   92.8072    9.9970 C.ar    1  UNL1        0.1062
     15 C          66.6000   94.0936    9.7434 C.ar    1  UNL1        0.0573
     16 S          66.2158   94.6781   11.0703 S.2     1  UNL1       -0.0666
     17 C          63.4483   89.6527   15.7908 C.3     1  UNL1        0.0474
     18 C          63.5297   88.1652   15.9660 C.ar    1  UNL1       -0.0205
     19 C          64.2756   87.3319   14.9664 C.ar    1  UNL1       -0.0042
     20 C          64.3570   85.8445   15.1417 C.ar    1  UNL1       -0.0003
     21 C          63.6925   85.1902   16.3166 C.ar    1  UNL1       -0.0000
     22 C          62.9466   86.0235   17.3163 C.ar    1  UNL1       -0.0003
     23 C          62.8652   87.5110   17.1409 C.ar    1  UNL1       -0.0042
     24 C          63.1080   88.3904   11.6240 C.3     1  UNL1        0.0924
     25 C          62.0516   87.3429   11.4318 C.3     1  UNL1        0.0950
     26 N          62.4132   85.8894   11.5123 N.am    1  UNL1       -0.2706
     27 C          62.8408   85.1534   10.2772 C.2     1  UNL1        0.4020
     28 O          62.9068   85.8709    8.9617 O.2     1  UNL1       -0.2264
     29 H          62.3700   85.4185   12.3758 H       1  UNL1        0.1527
     30 O          63.2024   83.6999   10.3577 O.3     1  UNL1       -0.4291
     31 C          63.8515   83.1560   11.5958 C.3     1  UNL1        0.2447
     32 C          63.0910   82.2268   12.4949 C.ar    1  UNL1        0.0714
     33 C          62.8741   80.7602   12.2668 C.ar    1  UNL1        0.1053
     34 N          62.0630   80.2281   13.4108 N.ar    1  UNL1       -0.2350
     35 C          61.7786   81.3658   14.3461 C.ar    1  UNL1        0.1343
     36 S          62.4140   82.6011   13.7800 S.2     1  UNL1       -0.0652
     37 C          60.6336   87.7491   11.1592 C.3     1  UNL1        0.0474
     38 C          60.1567   87.9050    9.7456 C.ar    1  UNL1       -0.0205
     39 C          59.6381   86.7153    8.9934 C.ar    1  UNL1       -0.0042
     40 C          59.1612   86.8712    7.5799 C.ar    1  UNL1       -0.0003
     41 C          59.2028   88.2168    6.9184 C.ar    1  UNL1       -0.0000
     42 C          59.7213   89.4065    7.6705 C.ar    1  UNL1       -0.0003
     43 C          60.1983   89.2506    9.0842 C.ar    1  UNL1       -0.0042
@<TRIPOS>BOND
     1     2     3    1
     2     3     1    1
     3     1    24    1
     4    25    24    1
     5    25    37    1
     6    37    38    1
     7    38    39   ar
     8    39    40   ar
     9    40    41   ar
    10    41    42   ar
    11    42    43   ar
    12    25    26    1
    13    26    27   am
    14    27    28    2
    15    27    30    1
    16    30    31    1
    17    31    32    1
    18    32    33   ar
    19    33    34   ar
    20    34    35   ar
    21    35    36   ar
    22     1     4    1
    23     5     4    1
    24     5    17    1
    25    17    18    1
    26    18    19   ar
    27    19    20   ar
    28    20    21   ar
    29    21    22   ar
    30    22    23   ar
    31     5     6    1
    32     6     7   am
    33     7     8    2
    34     7    10    1
    35    10    11    1
    36    11    12    1
    37    12    13   ar
    38    13    14   ar
    39    14    15   ar
    40    15    16   ar
    41    43    38   ar
    42    36    32   ar
    43    23    18   ar
    44    16    12   ar
    45    26    29    1
    46     6     9    1
@<TRIPOS>MOLECULE
*****
 43 46 0 0 0
SMALL
GASTEIGER

@<TRIPOS>ATOM
      1 N          62.0473   89.6210   12.0105 N.3     1  UNL1       -0.2699
      2 C          59.6893   90.5162   11.3873 C.3     1  UNL1        0.0188
      3 C          61.1445   90.3525   11.0620 C.3     1  UNL1        0.0722
      4 C          62.7362   88.3632   11.5708 C.3     1  UNL1        0.0924
      5 C          62.0211   87.3869   10.6847 C.3     1  UNL1        0.0950
      6 N          61.7729   87.7239    9.2442 N.am    1  UNL1       -0.2706
      7 C          60.3678   87.8601    8.7371 C.2     1  UNL1        0.4020
      8 O          59.2108   87.6593    9.6705 O.2     1  UNL1       -0.2264
      9 H          62.5322   87.8556    8.6316 H       1  UNL1        0.1527
     10 O          60.1197   88.1970    7.2967 O.3     1  UNL1       -0.4274
     11 C          58.9183   89.0090    6.9125 C.3     1  UNL1        0.2621
     12 C          59.0577   90.1386    5.9355 C.ar    1  UNL1        0.1323
     13 N          60.3411   90.6336    5.3373 N.ar    1  UNL1       -0.2374
     14 C          60.0148   91.7725    4.4173 C.ar    1  UNL1        0.1062
     15 C          58.5297   91.9812    4.4468 C.ar    1  UNL1        0.0573
     16 S          57.9382   90.9714    5.3851 S.2     1  UNL1       -0.0666
     17 C          61.5540   86.0736   11.2389 C.3     1  UNL1        0.0474
     18 C          62.4881   84.9006   11.2762 C.ar    1  UNL1       -0.0205
     19 C          62.7294   84.1748   12.5666 C.ar    1  UNL1       -0.0042
     20 C          63.6635   83.0017   12.6039 C.ar    1  UNL1       -0.0003
     21 C          64.3563   82.5544   11.3509 C.ar    1  UNL1       -0.0000
     22 C          64.1150   83.2802   10.0605 C.ar    1  UNL1       -0.0003
     23 C          63.1809   84.4533   10.0232 C.ar    1  UNL1       -0.0042
     24 C          62.2613   90.1473   13.3988 C.3     1  UNL1        0.0924
     25 C          63.6521   90.4108   13.8949 C.3     1  UNL1        0.0950
     26 N          64.6381   91.1252   13.0190 N.am    1  UNL1       -0.2706
     27 C          65.5251   92.1868   13.5989 C.2     1  UNL1        0.4020
     28 O          65.4261   92.5339   15.0548 O.2     1  UNL1       -0.2264
     29 H          64.7032   90.8974   12.0634 H       1  UNL1        0.1527
     30 O          66.5111   92.9012   12.7230 O.3     1  UNL1       -0.4291
     31 C          66.0782   94.0956   11.9254 C.3     1  UNL1        0.2447
     32 C          66.6977   94.3682   10.5868 C.ar    1  UNL1        0.0714
     33 C          67.3154   93.3481    9.6770 C.ar    1  UNL1        0.1053
     34 N          67.8078   94.0581    8.4509 N.ar    1  UNL1       -0.2350
     35 C          67.4944   95.5172    8.6029 C.ar    1  UNL1        0.1343
     36 S          66.8083   95.7088    9.9230 S.2     1  UNL1       -0.0652
     37 C          64.0570   89.9597   15.2671 C.3     1  UNL1        0.0474
     38 C          63.8414   88.5345   15.6821 C.ar    1  UNL1       -0.0205
     39 C          64.3782   87.4177   14.8366 C.ar    1  UNL1       -0.0042
     40 C          64.1626   85.9925   15.2516 C.ar    1  UNL1       -0.0003
     41 C          63.4103   85.6840   16.5121 C.ar    1  UNL1       -0.0000
     42 C          62.8735   86.8007   17.3576 C.ar    1  UNL1       -0.0003
     43 C          63.0890   88.2260   16.9426 C.ar    1  UNL1       -0.0042
@<TRIPOS>BOND
     1     2     3    1
     2     3     1    1
     3     1    24    1
     4    25    24    1
     5    25    37    1
     6    37    38    1
     7    38    39   ar
     8    39    40   ar
     9    40    41   ar
    10    41    42   ar
    11    42    43   ar
    12    25    26    1
    13    26    27   am
    14    27    28    2
    15    27    30    1
    16    30    31    1
    17    31    32    1
    18    32    33   ar
    19    33    34   ar
    20    34    35   ar
    21    35    36   ar
    22     1     4    1
    23     5     4    1
    24     5    17    1
    25    17    18    1
    26    18    19   ar
    27    19    20   ar
    28    20    21   ar
    29    21    22   ar
    30    22    23   ar
    31     5     6    1
    32     6     7   am
    33     7     8    2
    34     7    10    1
    35    10    11    1
    36    11    12    1
    37    12    13   ar
    38    13    14   ar
    39    14    15   ar
    40    15    16   ar
    41    43    38   ar
    42    36    32   ar
    43    23    18   ar
    44    16    12   ar
    45    26    29    1
    46     6     9    1
@<TRIPOS>MOLECULE
*****
 43 46 0 0 0
SMALL
GASTEIGER

@<TRIPOS>ATOM
      1 N          62.4088   89.9869   11.6514 N.3     1  UNL1       -0.2699
      2 C          64.1828   91.5361   10.5546 C.3     1  UNL1        0.0188
      3 C          62.7860   91.3092   11.0522 C.3     1  UNL1        0.0722
      4 C          63.4273   89.1901   12.4116 C.3     1  UNL1        0.0924
      5 C          63.8416   89.6205   13.7875 C.3     1  UNL1        0.0950
      6 N          64.0662   88.5945   14.8585 N.am    1  UNL1       -0.2706
      7 C          63.1512   88.5368   16.0456 C.2     1  UNL1        0.4020
      8 O          62.0116   89.5052   16.1619 O.2     1  UNL1       -0.2264
      9 H          64.8142   87.9589   14.7822 H       1  UNL1        0.1527
     10 O          63.3759   87.5109   17.1165 O.3     1  UNL1       -0.4274
     11 C          62.8165   86.1279   16.9594 C.3     1  UNL1        0.2621
     12 C          63.3975   85.1954   15.9382 C.ar    1  UNL1        0.1323
     13 N          64.6071   85.4586   15.0910 N.ar    1  UNL1       -0.2374
     14 C          64.8280   84.2619   14.2140 C.ar    1  UNL1        0.1062
     15 C          63.7550   83.2592   14.5192 C.ar    1  UNL1        0.0573
     16 S          62.8709   83.8361   15.5848 S.2     1  UNL1       -0.0666
     17 C          64.0313   91.0769   14.0925 C.3     1  UNL1        0.0474
     18 C          65.3831   91.5896   14.4921 C.ar    1  UNL1       -0.0205
     19 C          66.5329   91.4999   13.5330 C.ar    1  UNL1       -0.0042
     20 C          67.8846   92.0126   13.9326 C.ar    1  UNL1       -0.0003
     21 C          68.0867   92.6150   15.2915 C.ar    1  UNL1       -0.0000
     22 C          66.9369   92.7047   16.2506 C.ar    1  UNL1       -0.0003
     23 C          65.5851   92.1919   15.8509 C.ar    1  UNL1       -0.0042
     24 C          61.0132   89.4613   11.4904 C.3     1  UNL1        0.0924
     25 C          60.6941   88.5094   10.3760 C.3     1  UNL1        0.0950
     26 N          60.5538   89.0183    8.9720 N.am    1  UNL1       -0.2706
     27 C          59.5768   88.3730    8.0345 C.2     1  UNL1        0.4020
     28 O          58.7400   87.2188    8.5009 O.2     1  UNL1       -0.2264
     29 H          61.1030   89.7759    8.6658 H       1  UNL1        0.1527
     30 O          59.4364   88.8819    6.6305 O.3     1  UNL1       -0.4291
     31 C          58.7320   90.1804    6.3703 C.3     1  UNL1        0.2447
     32 C          59.1951   91.0754    5.2591 C.ar    1  UNL1        0.0714
     33 C          58.3296   91.9927    4.4470 C.ar    1  UNL1        0.1053
     34 N          59.2045   92.6944    3.4510 N.ar    1  UNL1       -0.2350
     35 C          60.6108   92.2108    3.6476 C.ar    1  UNL1        0.1343
     36 S          60.6049   91.2102    4.7650 S.2     1  UNL1       -0.0652
     37 C          60.5154   87.0484   10.6656 C.3     1  UNL1        0.0474
     38 C          61.5895   86.0720   10.2876 C.ar    1  UNL1       -0.0205
     39 C          62.1227   86.0490    8.8857 C.ar    1  UNL1       -0.0042
     40 C          63.1967   85.0726    8.5077 C.ar    1  UNL1       -0.0003
     41 C          63.7377   84.1191    9.5316 C.ar    1  UNL1       -0.0000
     42 C          63.2045   84.1421   10.9334 C.ar    1  UNL1       -0.0003
     43 C          62.1304   85.1185   11.3115 C.ar    1  UNL1       -0.0042
@<TRIPOS>BOND
     1     2     3    1
     2     3     1    1
     3     1    24    1
     4    25    24    1
     5    25    37    1
     6    37    38    1
     7    38    39   ar
     8    39    40   ar
     9    40    41   ar
    10    41    42   ar
    11    42    43   ar
    12    25    26    1
    13    26    27   am
    14    27    28    2
    15    27    30    1
    16    30    31    1
    17    31    32    1
    18    32    33   ar
    19    33    34   ar
    20    34    35   ar
    21    35    36   ar
    22     1     4    1
    23     5     4    1
    24     5    17    1
    25    17    18    1
    26    18    19   ar
    27    19    20   ar
    28    20    21   ar
    29    21    22   ar
    30    22    23   ar
    31     5     6    1
    32     6     7   am
    33     7     8    2
    34     7    10    1
    35    10    11    1
    36    11    12    1
    37    12    13   ar
    38    13    14   ar
    39    14    15   ar
    40    15    16   ar
    41    43    38   ar
    42    36    32   ar
    43    23    18   ar
    44    16    12   ar
    45    26    29    1
    46     6     9    1
@<TRIPOS>MOLECULE
*****
 43 46 0 0 0
SMALL
GASTEIGER

@<TRIPOS>ATOM
      1 N          61.7275   89.9726   11.4384 N.3     1  UNL1       -0.2699
      2 C          63.2881   91.4799   10.0091 C.3     1  UNL1        0.0188
      3 C          62.9635   90.1424   10.6058 C.3     1  UNL1        0.0722
      4 C          61.8370   89.8676   12.9307 C.3     1  UNL1        0.0924
      5 C          63.1872   89.8277   13.5827 C.3     1  UNL1        0.0950
      6 N          63.9617   88.5437   13.6256 N.am    1  UNL1       -0.2706
      7 C          64.0568   87.7676   14.9056 C.2     1  UNL1        0.4020
      8 O          63.3774   88.2753   16.1428 O.2     1  UNL1       -0.2264
      9 H          64.4076   88.2105   12.8136 H       1  UNL1        0.1527
     10 O          64.8312   86.4837   14.9485 O.3     1  UNL1       -0.4274
     11 C          64.2806   85.2999   15.6871 C.3     1  UNL1        0.2621
     12 C          63.8639   84.0725   14.9323 C.ar    1  UNL1        0.1323
     13 N          62.7480   83.1430   15.3077 N.ar    1  UNL1       -0.2374
     14 C          62.6844   82.0550   14.2770 C.ar    1  UNL1        0.1062
     15 C          63.7610   82.3122   13.2646 C.ar    1  UNL1        0.0573
     16 S          64.4899   83.5590   13.6696 S.2     1  UNL1       -0.0666
     17 C          63.7631   91.0716   14.1918 C.3     1  UNL1        0.0474
     18 C          65.1958   91.4365   13.9389 C.ar    1  UNL1       -0.0205
     19 C          66.2306   91.1897   14.9965 C.ar    1  UNL1       -0.0042
     20 C          67.6633   91.5546   14.7436 C.ar    1  UNL1       -0.0003
     21 C          68.0614   92.1664   13.4331 C.ar    1  UNL1       -0.0000
     22 C          67.0267   92.4133   12.3756 C.ar    1  UNL1       -0.0003
     23 C          65.5939   92.0483   12.6285 C.ar    1  UNL1       -0.0042
     24 C          60.3819   89.9078   10.7787 C.3     1  UNL1        0.0924
     25 C          60.1627   88.9929    9.6104 C.3     1  UNL1        0.0950
     26 N          60.1901   89.5398    8.2140 N.am    1  UNL1       -0.2706
     27 C          59.3035   88.9474    7.1590 C.2     1  UNL1        0.4020
     28 O          58.3896   87.8081    7.5004 O.2     1  UNL1       -0.2264
     29 H          60.7899   90.2876    7.9899 H       1  UNL1        0.1527
     30 O          59.3308   89.4944    5.7625 O.3     1  UNL1       -0.4291
     31 C          59.1950   90.9704    5.5324 C.3     1  UNL1        0.2447
     32 C          60.0123   91.6419    4.4688 C.ar    1  UNL1        0.0714
     33 C          61.4676   91.4044    4.1937 C.ar    1  UNL1        0.1053
     34 N          61.8726   92.2845    3.0485 N.ar    1  UNL1       -0.2350
     35 C          60.6675   93.0660    2.6159 C.ar    1  UNL1        0.1343
     36 S          59.5178   92.6689    3.4937 S.2     1  UNL1       -0.0652
     37 C          59.9162   87.5309    9.8386 C.3     1  UNL1        0.0474
     38 C          61.0473   86.5526    9.7234 C.ar    1  UNL1       -0.0205
     39 C          61.5560   85.8469   10.9455 C.ar    1  UNL1       -0.0042
     40 C          62.6871   84.8686   10.8303 C.ar    1  UNL1       -0.0003
     41 C          63.3098   84.5960    9.4931 C.ar    1  UNL1       -0.0000
     42 C          62.8012   85.3017    8.2711 C.ar    1  UNL1       -0.0003
     43 C          61.6700   86.2800    8.3863 C.ar    1  UNL1       -0.0042
@<TRIPOS>BOND
     1     2     3    1
     2     3     1    1
     3     1    24    1
     4    25    24    1
     5    25    37    1
     6    37    38    1
     7    38    39   ar
     8    39    40   ar
     9    40    41   ar
    10    41    42   ar
    11    42    43   ar
    12    25    26    1
    13    26    27   am
    14    27    28    2
    15    27    30    1
    16    30    31    1
    17    31    32    1
    18    32    33   ar
    19    33    34   ar
    20    34    35   ar
    21    35    36   ar
    22     1     4    1
    23     5     4    1
    24     5    17    1
    25    17    18    1
    26    18    19   ar
    27    19    20   ar
    28    20    21   ar
    29    21    22   ar
    30    22    23   ar
    31     5     6    1
    32     6     7   am
    33     7     8    2
    34     7    10    1
    35    10    11    1
    36    11    12    1
    37    12    13   ar
    38    13    14   ar
    39    14    15   ar
    40    15    16   ar
    41    43    38   ar
    42    36    32   ar
    43    23    18   ar
    44    16    12   ar
    45    26    29    1
    46     6     9    1
@<TRIPOS>MOLECULE
*****
 43 46 0 0 0
SMALL
GASTEIGER

@<TRIPOS>ATOM
      1 N          62.2303   89.5742   11.4040 N.3     1  UNL1       -0.2699
      2 C          59.8225   90.5338   11.2263 C.3     1  UNL1        0.0188
      3 C          61.1882   90.5582   11.8463 C.3     1  UNL1        0.0722
      4 C          61.9703   88.6863   10.2233 C.3     1  UNL1        0.0924
      5 C          61.1311   87.4533   10.3826 C.3     1  UNL1        0.0950
      6 N          61.0636   86.7583   11.7102 N.am    1  UNL1       -0.2706
      7 C          62.0434   85.6709   12.0382 C.2     1  UNL1        0.4020
      8 O          63.0908   85.2785   11.0387 O.2     1  UNL1       -0.2264
      9 H          60.3762   87.0158   12.3663 H       1  UNL1        0.1527
     10 O          61.9759   84.9760   13.3658 O.3     1  UNL1       -0.4274
     11 C          62.9951   83.9339   13.7196 C.3     1  UNL1        0.2621
     12 C          62.7477   82.4952   13.3746 C.ar    1  UNL1        0.1323
     13 N          63.2661   81.7770   12.1640 N.ar    1  UNL1       -0.2374
     14 C          62.7772   80.3601   12.2209 C.ar    1  UNL1        0.1062
     15 C          61.9565   80.2026   13.4666 C.ar    1  UNL1        0.0573
     16 S          61.9383   81.5222   14.1796 S.2     1  UNL1       -0.0666
     17 C          60.3594   86.9152    9.2143 C.3     1  UNL1        0.0474
     18 C          61.0361   86.0254    8.2141 C.ar    1  UNL1       -0.0205
     19 C          60.2443   85.4174    7.0946 C.ar    1  UNL1       -0.0042
     20 C          60.9210   84.5277    6.0944 C.ar    1  UNL1       -0.0003
     21 C          62.3896   84.2459    6.2138 C.ar    1  UNL1       -0.0000
     22 C          63.1813   84.8540    7.3333 C.ar    1  UNL1       -0.0003
     23 C          62.5045   85.7437    8.3335 C.ar    1  UNL1       -0.0042
     24 C          63.5325   89.4782   12.1423 C.3     1  UNL1        0.0924
     25 C          63.9515   90.5797   13.0701 C.3     1  UNL1        0.0950
     26 N          64.7334   91.7467   12.5441 N.am    1  UNL1       -0.2706
     27 C          66.0765   92.0734   13.1266 C.2     1  UNL1        0.4020
     28 O          66.6378   91.2332   14.2352 O.2     1  UNL1       -0.2264
     29 H          64.3651   92.2982   11.8164 H       1  UNL1        0.1527
     30 O          66.8584   93.2404   12.6005 O.3     1  UNL1       -0.4291
     31 C          66.1500   94.3677   11.9097 C.3     1  UNL1        0.2447
     32 C          66.5834   94.7987   10.5399 C.ar    1  UNL1        0.0714
     33 C          67.2419   93.9299    9.5095 C.ar    1  UNL1        0.1053
     34 N          67.5000   94.7683    8.2927 N.ar    1  UNL1       -0.2350
     35 C          67.0010   96.1553    8.5711 C.ar    1  UNL1        0.1343
     36 S          66.4345   96.1740    9.9599 S.2     1  UNL1       -0.0652
     37 C          63.5887   90.5143   14.5242 C.3     1  UNL1        0.0474
     38 C          63.5989   89.1968   15.2411 C.ar    1  UNL1       -0.0205
     39 C          64.3013   88.0183   14.6346 C.ar    1  UNL1       -0.0042
     40 C          64.3115   86.7008   15.3516 C.ar    1  UNL1       -0.0003
     41 C          63.6193   86.5617   16.6751 C.ar    1  UNL1       -0.0000
     42 C          62.9169   87.7402   17.2816 C.ar    1  UNL1       -0.0003
     43 C          62.9067   89.0578   16.5646 C.ar    1  UNL1       -0.0042
@<TRIPOS>BOND
     1     2     3    1
     2     3     1    1
     3     1    24    1
     4    25    24    1
     5    25    37    1
     6    37    38    1
     7    38    39   ar
     8    39    40   ar
     9    40    41   ar
    10    41    42   ar
    11    42    43   ar
    12    25    26    1
    13    26    27   am
    14    27    28    2
    15    27    30    1
    16    30    31    1
    17    31    32    1
    18    32    33   ar
    19    33    34   ar
    20    34    35   ar
    21    35    36   ar
    22     1     4    1
    23     5     4    1
    24     5    17    1
    25    17    18    1
    26    18    19   ar
    27    19    20   ar
    28    20    21   ar
    29    21    22   ar
    30    22    23   ar
    31     5     6    1
    32     6     7   am
    33     7     8    2
    34     7    10    1
    35    10    11    1
    36    11    12    1
    37    12    13   ar
    38    13    14   ar
    39    14    15   ar
    40    15    16   ar
    41    43    38   ar
    42    36    32   ar
    43    23    18   ar
    44    16    12   ar
    45    26    29    1
    46     6     9    1
@<TRIPOS>MOLECULE
*****
 43 46 0 0 0
SMALL
GASTEIGER

@<TRIPOS>ATOM
      1 N          62.4732   87.7777   12.3120 N.3     1  UNL1       -0.2699
      2 C          62.2911   85.2528   11.7271 C.3     1  UNL1        0.0188
      3 C          61.6342   86.5701   12.0158 C.3     1  UNL1        0.0722
      4 C          63.8584   87.6117   12.8630 C.3     1  UNL1        0.0924
      5 C          64.1588   88.0236   14.2737 C.3     1  UNL1        0.0950
      6 N          64.3742   89.4712   14.6026 N.am    1  UNL1       -0.2706
      7 C          63.4061   90.1896   15.4952 C.2     1  UNL1        0.4020
      8 O          62.2226   89.4605   16.0588 O.2     1  UNL1       -0.2264
      9 H          65.1510   89.9497   14.2327 H       1  UNL1        0.1527
     10 O          63.6216   91.6371   15.8241 O.3     1  UNL1       -0.4274
     11 C          64.9049   92.0781   16.4635 C.3     1  UNL1        0.2621
     12 C          66.1564   92.1773   15.6427 C.ar    1  UNL1        0.1323
     13 N          66.3676   91.5833   14.2816 N.ar    1  UNL1       -0.2374
     14 C          67.7582   91.9269   13.8365 C.ar    1  UNL1        0.1062
     15 C          68.4065   92.7333   14.9226 C.ar    1  UNL1        0.0573
     16 S          67.4165   92.8881   16.0388 S.2     1  UNL1       -0.0666
     17 C          64.2437   86.9880   15.3555 C.3     1  UNL1        0.0474
     18 C          63.9374   85.5527   15.0455 C.ar    1  UNL1       -0.0205
     19 C          64.9204   84.7267   14.2700 C.ar    1  UNL1       -0.0042
     20 C          64.6141   83.2914   13.9600 C.ar    1  UNL1       -0.0003
     21 C          63.3249   82.6821   14.4255 C.ar    1  UNL1       -0.0000
     22 C          62.3419   83.5082   15.2010 C.ar    1  UNL1       -0.0003
     23 C          62.6482   84.9435   15.5110 C.ar    1  UNL1       -0.0042
     24 C          61.9271   89.1512   12.0572 C.3     1  UNL1        0.0924
     25 C          61.9478   89.7212   10.6698 C.3     1  UNL1        0.0950
     26 N          63.1568   90.4627   10.1816 N.am    1  UNL1       -0.2706
     27 C          63.8824   91.4012   11.0997 C.2     1  UNL1        0.4020
     28 O          63.3989   91.5982   12.5059 O.2     1  UNL1       -0.2264
     29 H          63.4742   90.3334    9.2587 H       1  UNL1        0.1527
     30 O          65.0914   92.1428   10.6115 O.3     1  UNL1       -0.4291
     31 C          65.5423   93.3882   11.3155 C.3     1  UNL1        0.2447
     32 C          66.2474   94.4687   10.5504 C.ar    1  UNL1        0.0714
     33 C          67.2217   94.2626    9.4287 C.ar    1  UNL1        0.1053
     34 N          67.6786   95.6114    8.9577 N.ar    1  UNL1       -0.2350
     35 C          66.9866   96.6513    9.7884 C.ar    1  UNL1        0.1343
     36 S          66.1021   95.9450   10.7727 S.2     1  UNL1       -0.0652
     37 C          60.7595   89.5495    9.7706 C.3     1  UNL1        0.0474
     38 C          60.5751   88.2716    9.0071 C.ar    1  UNL1       -0.0205
     39 C          61.7097   87.2973    8.8902 C.ar    1  UNL1       -0.0042
     40 C          61.5253   86.0195    8.1267 C.ar    1  UNL1       -0.0003
     41 C          60.2064   85.7158    7.4800 C.ar    1  UNL1       -0.0000
     42 C          59.0719   86.6900    7.5969 C.ar    1  UNL1       -0.0003
     43 C          59.2562   87.9679    8.3604 C.ar    1  UNL1       -0.0042
@<TRIPOS>BOND
     1     2     3    1
     2     3     1    1
     3     1    24    1
     4    25    24    1
     5    25    37    1
     6    37    38    1
     7    38    39   ar
     8    39    40   ar
     9    40    41   ar
    10    41    42   ar
    11    42    43   ar
    12    25    26    1
    13    26    27   am
    14    27    28    2
    15    27    30    1
    16    30    31    1
    17    31    32    1
    18    32    33   ar
    19    33    34   ar
    20    34    35   ar
    21    35    36   ar
    22     1     4    1
    23     5     4    1
    24     5    17    1
    25    17    18    1
    26    18    19   ar
    27    19    20   ar
    28    20    21   ar
    29    21    22   ar
    30    22    23   ar
    31     5     6    1
    32     6     7   am
    33     7     8    2
    34     7    10    1
    35    10    11    1
    36    11    12    1
    37    12    13   ar
    38    13    14   ar
    39    14    15   ar
    40    15    16   ar
    41    43    38   ar
    42    36    32   ar
    43    23    18   ar
    44    16    12   ar
    45    26    29    1
    46     6     9    1
@<TRIPOS>MOLECULE
*****
 43 46 0 0 0
SMALL
GASTEIGER

@<TRIPOS>ATOM
      1 N          61.9372   89.6962   11.4934 N.3     1  UNL1       -0.2699
      2 C          59.5076   90.6148   11.5509 C.3     1  UNL1        0.0188
      3 C          60.6957   90.0383   12.2625 C.3     1  UNL1        0.0722
      4 C          63.1978   89.3400   12.2241 C.3     1  UNL1        0.0924
      5 C          63.8576   90.3486   13.1170 C.3     1  UNL1        0.0950
      6 N          64.6820   91.4516   12.5220 N.am    1  UNL1       -0.2706
      7 C          65.9855   91.8388   13.1550 C.2     1  UNL1        0.4020
      8 O          66.4648   91.1231   14.3830 O.2     1  UNL1       -0.2264
      9 H          64.3674   91.9214   11.7160 H       1  UNL1        0.1527
     10 O          66.8098   92.9417   12.5600 O.3     1  UNL1       -0.4274
     11 C          66.1568   94.2281   12.1491 C.3     1  UNL1        0.2621
     12 C          66.5246   94.8731   10.8458 C.ar    1  UNL1        0.1323
     13 N          67.6231   94.4338    9.9237 N.ar    1  UNL1       -0.2374
     14 C          67.6360   95.3597    8.7437 C.ar    1  UNL1        0.1062
     15 C          66.5453   96.3714    8.9365 C.ar    1  UNL1        0.0573
     16 S          65.8585   96.0706   10.2357 S.2     1  UNL1       -0.0666
     17 C          63.6930   90.2544   14.6050 C.3     1  UNL1        0.0474
     18 C          63.6661   88.9116   15.2730 C.ar    1  UNL1       -0.0205
     19 C          64.3478   87.7403   14.6302 C.ar    1  UNL1       -0.0042
     20 C          64.3209   86.3976   15.2982 C.ar    1  UNL1       -0.0003
     21 C          63.6121   86.2261   16.6091 C.ar    1  UNL1       -0.0000
     22 C          62.9303   87.3974   17.2519 C.ar    1  UNL1       -0.0003
     23 C          62.9573   88.7402   16.5838 C.ar    1  UNL1       -0.0042
     24 C          61.9181   89.7101    9.9936 C.3     1  UNL1        0.0924
     25 C          60.8069   89.0286    9.2514 C.3     1  UNL1        0.0950
     26 N          60.1523   89.7125    8.0879 N.am    1  UNL1       -0.2706
     27 C          59.3860   88.9086    7.0796 C.2     1  UNL1        0.4020
     28 O          59.2745   87.4209    7.2347 O.2     1  UNL1       -0.2264
     29 H          60.2255   90.6890    7.9860 H       1  UNL1        0.1527
     30 O          58.7314   89.5925    5.9161 O.3     1  UNL1       -0.4291
     31 C          58.8757   91.0750    5.7394 C.3     1  UNL1        0.2447
     32 C          59.7909   91.6188    4.6826 C.ar    1  UNL1        0.0714
     33 C          61.2345   91.2570    4.4951 C.ar    1  UNL1        0.1053
     34 N          61.7590   92.0344    3.3244 N.ar    1  UNL1       -0.2350
     35 C          60.6395   92.8767    2.7884 C.ar    1  UNL1        0.1343
     36 S          59.4232   92.6198    3.6277 S.2     1  UNL1       -0.0652
     37 C          60.3504   87.6632    9.6726 C.3     1  UNL1        0.0474
     38 C          61.3508   86.5598    9.8508 C.ar    1  UNL1       -0.0205
     39 C          61.5705   85.9585   11.2074 C.ar    1  UNL1       -0.0042
     40 C          62.5708   84.8551   11.3855 C.ar    1  UNL1       -0.0003
     41 C          63.3515   84.3530   10.2072 C.ar    1  UNL1       -0.0000
     42 C          63.1318   84.9543    8.8507 C.ar    1  UNL1       -0.0003
     43 C          62.1314   86.0577    8.6725 C.ar    1  UNL1       -0.0042
@<TRIPOS>BOND
     1     2     3    1
     2     3     1    1
     3     1    24    1
     4    25    24    1
     5    25    37    1
     6    37    38    1
     7    38    39   ar
     8    39    40   ar
     9    40    41   ar
    10    41    42   ar
    11    42    43   ar
    12    25    26    1
    13    26    27   am
    14    27    28    2
    15    27    30    1
    16    30    31    1
    17    31    32    1
    18    32    33   ar
    19    33    34   ar
    20    34    35   ar
    21    35    36   ar
    22     1     4    1
    23     5     4    1
    24     5    17    1
    25    17    18    1
    26    18    19   ar
    27    19    20   ar
    28    20    21   ar
    29    21    22   ar
    30    22    23   ar
    31     5     6    1
    32     6     7   am
    33     7     8    2
    34     7    10    1
    35    10    11    1
    36    11    12    1
    37    12    13   ar
    38    13    14   ar
    39    14    15   ar
    40    15    16   ar
    41    43    38   ar
    42    36    32   ar
    43    23    18   ar
    44    16    12   ar
    45    26    29    1
    46     6     9    1
@<TRIPOS>MOLECULE
*****
 43 46 0 0 0
SMALL
GASTEIGER

@<TRIPOS>ATOM
      1 N          62.4134   85.9360   11.0758 N.3     1  UNL1       -0.2699
      2 C          62.8788   85.6814    8.5324 C.3     1  UNL1        0.0188
      3 C          62.1623   85.2364    9.7729 C.3     1  UNL1        0.0722
      4 C          62.2362   85.1980   12.3696 C.3     1  UNL1        0.0924
      5 C          63.4340   84.8363   13.1968 C.3     1  UNL1        0.0950
      6 N          63.7090   85.5666   14.4780 N.am    1  UNL1       -0.2706
      7 C          63.1058   85.0807   15.7625 C.2     1  UNL1        0.4020
      8 O          62.2277   83.8646   15.7660 O.2     1  UNL1       -0.2264
      9 H          64.2854   86.3647   14.4757 H       1  UNL1        0.1527
     10 O          63.3808   85.8109   17.0436 O.3     1  UNL1       -0.4274
     11 C          62.8103   87.1807   17.2635 C.3     1  UNL1        0.2621
     12 C          63.3280   88.3447   16.4717 C.ar    1  UNL1        0.1323
     13 N          64.1661   88.2637   15.2302 N.ar    1  UNL1       -0.2374
     14 C          64.4545   89.6631   14.7736 C.ar    1  UNL1        0.1062
     15 C          63.7947   90.6089   15.7328 C.ar    1  UNL1        0.0573
     16 S          63.0985   89.7941   16.7822 S.2     1  UNL1       -0.0666
     17 C          64.3570   83.7444   12.7430 C.3     1  UNL1        0.0474
     18 C          63.7956   82.4377   12.2663 C.ar    1  UNL1       -0.0205
     19 C          63.8368   82.0912   10.8075 C.ar    1  UNL1       -0.0042
     20 C          63.2754   80.7845   10.3309 C.ar    1  UNL1       -0.0003
     21 C          62.6727   79.8242   11.3131 C.ar    1  UNL1       -0.0000
     22 C          62.6315   80.1707   12.7719 C.ar    1  UNL1       -0.0003
     23 C          63.1930   81.4775   13.2486 C.ar    1  UNL1       -0.0042
     24 C          62.8416   87.3735   11.0848 C.3     1  UNL1        0.0924
     25 C          61.8757   88.4412   11.5056 C.3     1  UNL1        0.0950
     26 N          62.3625   89.6303   12.2794 N.am    1  UNL1       -0.2706
     27 C          63.0809   90.7418   11.5732 C.2     1  UNL1        0.4020
     28 O          63.3124   90.6640   10.0933 O.2     1  UNL1       -0.2264
     29 H          62.2106   89.6814   13.2508 H       1  UNL1        0.1527
     30 O          63.5678   91.9309   12.3470 O.3     1  UNL1       -0.4291
     31 C          65.0367   92.1222   12.5827 C.3     1  UNL1        0.2447
     32 C          65.8278   93.0302   11.6884 C.ar    1  UNL1        0.0714
     33 C          66.1780   94.4610   11.9719 C.ar    1  UNL1        0.1053
     34 N          66.9742   94.9819   10.8124 N.ar    1  UNL1       -0.2350
     35 C          67.1161   93.8731    9.8121 C.ar    1  UNL1        0.1343
     36 S          66.4076   92.6669   10.3535 S.2     1  UNL1       -0.0652
     37 C          60.4228   88.3196   11.1525 C.3     1  UNL1        0.0474
     38 C          60.0036   88.2536    9.7139 C.ar    1  UNL1       -0.0205
     39 C          60.1879   89.4466    8.8234 C.ar    1  UNL1       -0.0042
     40 C          59.7686   89.3806    7.3847 C.ar    1  UNL1       -0.0003
     41 C          59.1651   88.1216    6.8364 C.ar    1  UNL1       -0.0000
     42 C          58.9808   86.9286    7.7268 C.ar    1  UNL1       -0.0003
     43 C          59.4001   86.9946    9.1656 C.ar    1  UNL1       -0.0042
@<TRIPOS>BOND
     1     2     3    1
     2     3     1    1
     3     1    24    1
     4    25    24    1
     5    25    37    1
     6    37    38    1
     7    38    39   ar
     8    39    40   ar
     9    40    41   ar
    10    41    42   ar
    11    42    43   ar
    12    25    26    1
    13    26    27   am
    14    27    28    2
    15    27    30    1
    16    30    31    1
    17    31    32    1
    18    32    33   ar
    19    33    34   ar
    20    34    35   ar
    21    35    36   ar
    22     1     4    1
    23     5     4    1
    24     5    17    1
    25    17    18    1
    26    18    19   ar
    27    19    20   ar
    28    20    21   ar
    29    21    22   ar
    30    22    23   ar
    31     5     6    1
    32     6     7   am
    33     7     8    2
    34     7    10    1
    35    10    11    1
    36    11    12    1
    37    12    13   ar
    38    13    14   ar
    39    14    15   ar
    40    15    16   ar
    41    43    38   ar
    42    36    32   ar
    43    23    18   ar
    44    16    12   ar
    45    26    29    1
    46     6     9    1
