@<TRIPOS>MOLECULE
*****
 58 64 0 0 0
SMALL
GASTEIGER

@<TRIPOS>ATOM
      1 N          62.2589   94.6768   -2.9827 N.3     1  UNL1       -0.1862
      2 C          61.1283   94.2909   -3.8898 C.3     1  UNL1        0.1775
      3 C          59.8425   93.7804   -3.3103 C.2     1  UNL1        0.2452
      4 O          58.7119   93.3945   -4.2175 O.2     1  UNL1       -0.2732
      5 N          59.6871   93.6558   -1.8236 N.am    1  UNL1       -0.2541
      6 C          58.4012   93.1453   -1.2440 C.3     1  UNL1        0.1577
      7 C          58.2459   93.0207    0.2427 C.2     1  UNL1        0.2445
      8 O          56.9600   92.5102    0.8223 O.2     1  UNL1       -0.2731
      9 N          59.3765   93.4066    1.1499 N.am    1  UNL1       -0.2705
     10 C          60.6624   93.9171    0.5703 C.3     1  UNL1        0.1359
     11 C          60.8177   94.0417   -0.9165 C.3     1  UNL1        0.1908
     12 N          62.1036   94.5522   -1.4960 N.am    1  UNL1       -0.1863
     13 C          63.2341   94.9381   -0.5888 C.2     1  UNL1        0.3191
     14 O          63.0788   94.8135    0.8979 O.2     1  UNL1       -0.2512
     15 N          64.5200   95.4486   -1.1684 N.am    1  UNL1       -0.2836
     16 H          64.6219   95.5304   -2.1442 H       1  UNL1        0.1513
     17 C          63.5448   95.1873   -3.5623 C.3     1  UNL1        0.1188
     18 C          64.3821   92.9928   -4.6727 C.2     1  UNL1       -0.0034
     19 C          64.6584   94.2321   -3.8739 C.2     1  UNL1       -0.0071
     20 C          57.2707   92.7594   -2.1511 C.3     1  UNL1        0.0556
     21 C          56.2526   93.7831   -2.5580 C.ar    1  UNL1       -0.0198
     22 C          55.6967   94.7339   -1.5397 C.ar    1  UNL1       -0.0011
     23 C          54.6786   95.7576   -1.9465 C.ar    1  UNL1        0.0363
     24 C          54.2165   95.8306   -3.3717 C.ar    1  UNL1        0.1337
     25 O          53.1984   96.8543   -3.7785 O.3     1  UNL1       -0.5055
     26 C          54.7724   94.8798   -4.3901 C.ar    1  UNL1        0.0363
     27 C          55.7905   93.8561   -3.9832 C.ar    1  UNL1       -0.0011
     28 H          52.8511   97.4482   -3.1424 H       1  UNL1        0.2922
     29 C          59.2212   93.2820    2.6366 C.3     1  UNL1        0.1217
     30 C          60.0035   92.2461    3.3882 C.ar    1  UNL1        0.0135
     31 C          61.4627   92.0527    3.0997 C.ar    1  UNL1       -0.0012
     32 C          62.2451   91.0169    3.8513 C.ar    1  UNL1       -0.0002
     33 C          61.5682   90.1744    4.8914 C.ar    1  UNL1        0.0016
     34 C          60.1089   90.3678    5.1800 C.ar    1  UNL1        0.0214
     35 C          59.1778   89.6912    6.1418 C.ar    1  UNL1        0.0721
     36 C          57.8199   90.3090    5.9847 C.ar    1  UNL1        0.0805
     37 N          57.9119   91.3672    4.9258 N.ar    1  UNL1       -0.3241
     38 C          56.7868   92.2366    4.4480 C.3     1  UNL1        0.1305
     39 C          59.3266   91.4036    4.4284 C.ar    1  UNL1        0.0577
     40 C          59.5407   88.5902    7.0938 C.2     1  UNL1        0.2506
     41 O          59.3032   87.1593    6.7112 O.2     1  UNL1       -0.2699
     42 N          60.1412   88.9200    8.4282 N.am    1  UNL1       -0.2732
     43 C          60.5041   87.8191    9.3801 C.3     1  UNL1        0.1110
     44 C          61.1046   88.1489   10.7145 C.3     1  UNL1        0.0940
     45 N          61.3421   89.5797   11.0970 N.3     1  UNL1       -0.2677
     46 C          60.9791   90.6807   10.1451 C.3     1  UNL1        0.0940
     47 C          60.3786   90.3509    8.8107 C.3     1  UNL1        0.1110
     48 C          61.9425   89.9096   12.4315 C.3     1  UNL1        0.1043
     49 C          63.2887   90.5669   12.5063 C.3     1  UNL1        0.1544
     50 O          63.5356   91.6592   13.5043 O.3     1  UNL1       -0.3805
     51 H          62.9906   92.4301   13.2813 H       1  UNL1        0.2105
     52 C          65.6506   95.8345   -0.2613 C.3     1  UNL1        0.1177
     53 C          65.4494   95.8450    1.2251 C.ar    1  UNL1       -0.0025
     54 C          66.1753   94.8551    2.0872 C.ar    1  UNL1       -0.0026
     55 C          65.9742   94.8656    3.5736 C.ar    1  UNL1       -0.0003
     56 C          65.0471   95.8659    4.1980 C.ar    1  UNL1       -0.0000
     57 C          64.3212   96.8558    3.3359 C.ar    1  UNL1       -0.0003
     58 C          64.5223   96.8454    1.8495 C.ar    1  UNL1       -0.0026
@<TRIPOS>BOND
     1    18    19    2
     2    19    17    1
     3    17     1    1
     4     1     2    1
     5     2     3    1
     6     3     4    2
     7     3     5   am
     8     5     6    1
     9     6    20    1
    10    20    21    1
    11    21    22   ar
    12    22    23   ar
    13    23    24   ar
    14    24    25    1
    15    24    26   ar
    16    26    27   ar
    17     6     7    1
    18     7     8    2
    19     7     9   am
    20     9    29    1
    21    29    30    1
    22    30    31   ar
    23    31    32   ar
    24    32    33   ar
    25    33    34   ar
    26    34    35   ar
    27    35    40    1
    28    40    41    2
    29    40    42   am
    30    42    43    1
    31    43    44    1
    32    44    45    1
    33    45    48    1
    34    48    49    1
    35    49    50    1
    36    45    46    1
    37    46    47    1
    38    35    36   ar
    39    36    37   ar
    40    37    38    1
    41    37    39   ar
    42     9    10    1
    43    11    10    1
    44    11    12    1
    45    12    13   am
    46    13    14    2
    47    13    15   am
    48    15    52    1
    49    52    53    1
    50    53    54   ar
    51    54    55   ar
    52    55    56   ar
    53    56    57   ar
    54    57    58   ar
    55    12     1    1
    56    58    53   ar
    57    11     5    1
    58    27    21   ar
    59    39    30   ar
    60    39    34   ar
    61    47    42    1
    62    25    28    1
    63    50    51    1
    64    15    16    1
@<TRIPOS>MOLECULE
*****
 58 64 0 0 0
SMALL
GASTEIGER

@<TRIPOS>ATOM
      1 N          61.0602   85.3567    7.7899 N.3     1  UNL1       -0.1862
      2 C          61.8002   84.1003    8.1415 C.3     1  UNL1        0.1775
      3 C          62.6044   84.0323    9.4058 C.2     1  UNL1        0.2452
      4 O          63.3444   82.7758    9.7574 O.2     1  UNL1       -0.2732
      5 N          62.6687   85.2209   10.3186 N.am    1  UNL1       -0.2541
      6 C          63.4729   85.1530   11.5830 C.3     1  UNL1        0.1577
      7 C          63.5371   86.3416   12.4957 C.2     1  UNL1        0.2445
      8 O          64.3414   86.2736   13.7601 O.2     1  UNL1       -0.2731
      9 N          62.7972   87.5981   12.1441 N.am    1  UNL1       -0.2705
     10 C          61.9929   87.6660   10.8797 C.3     1  UNL1        0.1359
     11 C          61.9287   86.4774    9.9670 C.3     1  UNL1        0.1908
     12 N          61.1245   86.5453    8.7026 N.am    1  UNL1       -0.1863
     13 C          60.3845   87.8019    8.3510 C.2     1  UNL1        0.3191
     14 O          60.4488   88.9904    9.2637 O.2     1  UNL1       -0.2512
     15 N          59.5803   87.8698    7.0866 N.am    1  UNL1       -0.2836
     16 H          59.5381   87.0897    6.4876 H       1  UNL1        0.1513
     17 C          60.2560   85.4247    6.5255 C.3     1  UNL1        0.1188
     18 C          61.9370   84.2042    4.9652 C.2     1  UNL1       -0.0034
     19 C          60.5275   84.4580    5.4111 C.2     1  UNL1       -0.0071
     20 C          64.2128   83.8965   11.9346 C.3     1  UNL1        0.0556
     21 C          63.4710   82.7235   12.5036 C.ar    1  UNL1       -0.0198
     22 C          63.5838   81.3771   11.8521 C.ar    1  UNL1       -0.0011
     23 C          62.8420   80.2041   12.4211 C.ar    1  UNL1        0.0363
     24 C          61.9873   80.3775   13.6416 C.ar    1  UNL1        0.1337
     25 O          61.2455   79.2045   14.2106 O.3     1  UNL1       -0.5055
     26 C          61.8745   81.7240   14.2931 C.ar    1  UNL1        0.0363
     27 C          62.6163   82.8970   13.7241 C.ar    1  UNL1       -0.0011
     28 H          61.3160   78.3634   13.8036 H       1  UNL1        0.2922
     29 C          62.8614   88.7867   13.0568 C.3     1  UNL1        0.1217
     30 C          63.2275   90.1342   12.5089 C.ar    1  UNL1        0.0135
     31 C          62.5318   90.6622   11.2894 C.ar    1  UNL1       -0.0012
     32 C          62.8978   92.0097   10.7414 C.ar    1  UNL1       -0.0002
     33 C          63.9596   92.8292   11.4130 C.ar    1  UNL1        0.0016
     34 C          64.6553   92.3012   12.6325 C.ar    1  UNL1        0.0214
     35 C          65.7335   92.8777   13.5015 C.ar    1  UNL1        0.0721
     36 C          66.0338   91.8865   14.5865 C.ar    1  UNL1        0.0805
     37 N          65.1413   90.6974   14.3881 N.ar    1  UNL1       -0.3241
     38 C          65.1067   89.4679   15.2466 C.3     1  UNL1        0.1305
     39 C          64.2893   90.9537   13.1804 C.ar    1  UNL1        0.0577
     40 C          66.3952   94.2113   13.3177 C.2     1  UNL1        0.2506
     41 O          67.0470   94.8923   14.4845 O.2     1  UNL1       -0.2699
     42 N          66.4051   94.8639   11.9671 N.am    1  UNL1       -0.2732
     43 C          67.0668   96.1974   11.7833 C.3     1  UNL1        0.1110
     44 C          67.0766   96.8500   10.4327 C.3     1  UNL1        0.0940
     45 N          66.4248   96.1690    9.2659 N.3     1  UNL1       -0.2677
     46 C          65.7631   94.8354    9.4498 C.3     1  UNL1        0.0940
     47 C          65.7532   94.1828   10.8004 C.3     1  UNL1        0.1110
     48 C          66.4347   96.8216    7.9154 C.3     1  UNL1        0.1043
     49 C          65.2219   96.7441    7.0361 C.3     1  UNL1        0.1544
     50 O          65.3666   96.8556    5.5473 O.3     1  UNL1       -0.3805
     51 H          65.6765   97.7458    5.3183 H       1  UNL1        0.2105
     52 C          58.8403   89.1263    6.7350 C.3     1  UNL1        0.1177
     53 C          59.4454   90.1102    5.7780 C.ar    1  UNL1       -0.0025
     54 C          60.9095   90.0427    5.4587 C.ar    1  UNL1       -0.0026
     55 C          61.5145   91.0265    4.5018 C.ar    1  UNL1       -0.0003
     56 C          60.6556   92.0779    3.8640 C.ar    1  UNL1       -0.0000
     57 C          59.1915   92.1455    4.1833 C.ar    1  UNL1       -0.0003
     58 C          58.5864   91.1616    5.1403 C.ar    1  UNL1       -0.0026
@<TRIPOS>BOND
     1    18    19    2
     2    19    17    1
     3    17     1    1
     4     1     2    1
     5     2     3    1
     6     3     4    2
     7     3     5   am
     8     5     6    1
     9     6    20    1
    10    20    21    1
    11    21    22   ar
    12    22    23   ar
    13    23    24   ar
    14    24    25    1
    15    24    26   ar
    16    26    27   ar
    17     6     7    1
    18     7     8    2
    19     7     9   am
    20     9    29    1
    21    29    30    1
    22    30    31   ar
    23    31    32   ar
    24    32    33   ar
    25    33    34   ar
    26    34    35   ar
    27    35    40    1
    28    40    41    2
    29    40    42   am
    30    42    43    1
    31    43    44    1
    32    44    45    1
    33    45    48    1
    34    48    49    1
    35    49    50    1
    36    45    46    1
    37    46    47    1
    38    35    36   ar
    39    36    37   ar
    40    37    38    1
    41    37    39   ar
    42     9    10    1
    43    11    10    1
    44    11    12    1
    45    12    13   am
    46    13    14    2
    47    13    15   am
    48    15    52    1
    49    52    53    1
    50    53    54   ar
    51    54    55   ar
    52    55    56   ar
    53    56    57   ar
    54    57    58   ar
    55    12     1    1
    56    58    53   ar
    57    11     5    1
    58    27    21   ar
    59    39    30   ar
    60    39    34   ar
    61    47    42    1
    62    25    28    1
    63    50    51    1
    64    15    16    1
@<TRIPOS>MOLECULE
*****
 58 64 0 0 0
SMALL
GASTEIGER

@<TRIPOS>ATOM
      1 N          60.9796   85.5504    7.9418 N.3     1  UNL1       -0.1862
      2 C          61.8284   84.4031    8.4034 C.3     1  UNL1        0.1775
      3 C          62.6333   84.5249    9.6633 C.2     1  UNL1        0.2452
      4 O          63.4821   83.3776   10.1250 O.2     1  UNL1       -0.2732
      5 N          62.5893   85.7941   10.4616 N.am    1  UNL1       -0.2541
      6 C          63.3942   85.9160   11.7215 C.3     1  UNL1        0.1577
      7 C          63.3502   87.1851   12.5197 C.2     1  UNL1        0.2445
      8 O          64.1551   87.3070   13.7796 O.2     1  UNL1       -0.2731
      9 N          62.5013   88.3325   12.0581 N.am    1  UNL1       -0.2705
     10 C          61.6965   88.2106   10.7982 C.3     1  UNL1        0.1359
     11 C          61.7405   86.9414   10.0000 C.3     1  UNL1        0.1908
     12 N          60.9356   86.8195    8.7401 N.am    1  UNL1       -0.1863
     13 C          60.0867   87.9669    8.2784 C.2     1  UNL1        0.3191
     14 O          60.0428   89.2360    9.0767 O.2     1  UNL1       -0.2512
     15 N          59.2818   87.8450    7.0186 N.am    1  UNL1       -0.2836
     16 H          59.3107   87.0120    6.4946 H       1  UNL1        0.1513
     17 C          60.1747   85.4285    6.6819 C.3     1  UNL1        0.1188
     18 C          61.9966   84.3335    5.1881 C.2     1  UNL1       -0.0034
     19 C          60.5678   84.4293    5.6345 C.2     1  UNL1       -0.0071
     20 C          64.2430   84.7687   12.1831 C.3     1  UNL1        0.0556
     21 C          63.6069   83.5871   12.8534 C.ar    1  UNL1       -0.0198
     22 C          62.3577   83.7674   13.6639 C.ar    1  UNL1       -0.0011
     23 C          61.7215   82.5858   14.3342 C.ar    1  UNL1        0.0363
     24 C          62.3346   81.2241   14.1940 C.ar    1  UNL1        0.1337
     25 O          61.6984   80.0425   14.8643 O.3     1  UNL1       -0.5055
     26 C          63.5838   81.0438   13.3834 C.ar    1  UNL1        0.0363
     27 C          64.2200   82.2253   12.7131 C.ar    1  UNL1       -0.0011
     28 H          60.9181   80.1551   15.3706 H       1  UNL1        0.2922
     29 C          62.4574   89.6017   12.8564 C.3     1  UNL1        0.1217
     30 C          63.4341   90.7031   12.5683 C.ar    1  UNL1        0.0135
     31 C          63.5652   91.2439   11.1753 C.ar    1  UNL1       -0.0012
     32 C          64.5418   92.3453   10.8872 C.ar    1  UNL1       -0.0002
     33 C          65.3873   92.9060   11.9921 C.ar    1  UNL1        0.0016
     34 C          65.2562   92.3652   13.3850 C.ar    1  UNL1        0.0214
     35 C          65.9502   92.7165   14.6676 C.ar    1  UNL1        0.0721
     36 C          65.4025   91.8322   15.7483 C.ar    1  UNL1        0.0805
     37 N          64.3700   90.9344   15.1337 N.ar    1  UNL1       -0.3241
     38 C          63.5686   89.8904   15.8534 C.3     1  UNL1        0.1305
     39 C          64.2795   91.2638   13.6732 C.ar    1  UNL1        0.0577
     40 C          67.0065   93.7677   14.8392 C.2     1  UNL1        0.2506
     41 O          66.8463   95.1064   14.1818 O.2     1  UNL1       -0.2699
     42 N          68.2231   93.4800   15.6682 N.am    1  UNL1       -0.2732
     43 C          69.2794   94.5310   15.8398 C.3     1  UNL1        0.1110
     44 C          70.4960   94.2434   16.6688 C.3     1  UNL1        0.0940
     45 N          70.6563   92.9047   17.3262 N.3     1  UNL1       -0.2677
     46 C          69.5999   91.8536   17.1545 C.3     1  UNL1        0.0940
     47 C          68.3833   92.1412   16.3255 C.3     1  UNL1        0.1110
     48 C          71.8728   92.6171   18.1552 C.3     1  UNL1        0.1043
     49 C          72.1470   91.2191   18.6248 C.3     1  UNL1        0.1544
     50 O          73.2788   90.9549   19.5731 O.3     1  UNL1       -0.3805
     51 H          74.1214   91.1463   19.1322 H       1  UNL1        0.2105
     52 C          58.4330   88.9923    6.5569 C.3     1  UNL1        0.1177
     53 C          59.0386   90.0891    5.7322 C.ar    1  UNL1       -0.0025
     54 C          60.5126   90.0917    5.4539 C.ar    1  UNL1       -0.0026
     55 C          61.1182   91.1885    4.6292 C.ar    1  UNL1       -0.0003
     56 C          60.2499   92.2827    4.0826 C.ar    1  UNL1       -0.0000
     57 C          58.7759   92.2802    4.3609 C.ar    1  UNL1       -0.0003
     58 C          58.1703   91.1834    5.1856 C.ar    1  UNL1       -0.0026
@<TRIPOS>BOND
     1    18    19    2
     2    19    17    1
     3    17     1    1
     4     1     2    1
     5     2     3    1
     6     3     4    2
     7     3     5   am
     8     5     6    1
     9     6    20    1
    10    20    21    1
    11    21    22   ar
    12    22    23   ar
    13    23    24   ar
    14    24    25    1
    15    24    26   ar
    16    26    27   ar
    17     6     7    1
    18     7     8    2
    19     7     9   am
    20     9    29    1
    21    29    30    1
    22    30    31   ar
    23    31    32   ar
    24    32    33   ar
    25    33    34   ar
    26    34    35   ar
    27    35    40    1
    28    40    41    2
    29    40    42   am
    30    42    43    1
    31    43    44    1
    32    44    45    1
    33    45    48    1
    34    48    49    1
    35    49    50    1
    36    45    46    1
    37    46    47    1
    38    35    36   ar
    39    36    37   ar
    40    37    38    1
    41    37    39   ar
    42     9    10    1
    43    11    10    1
    44    11    12    1
    45    12    13   am
    46    13    14    2
    47    13    15   am
    48    15    52    1
    49    52    53    1
    50    53    54   ar
    51    54    55   ar
    52    55    56   ar
    53    56    57   ar
    54    57    58   ar
    55    12     1    1
    56    58    53   ar
    57    11     5    1
    58    27    21   ar
    59    39    30   ar
    60    39    34   ar
    61    47    42    1
    62    25    28    1
    63    50    51    1
    64    15    16    1
@<TRIPOS>MOLECULE
*****
 58 64 0 0 0
SMALL
GASTEIGER

@<TRIPOS>ATOM
      1 N          65.2428   92.0383   10.5280 N.3     1  UNL1       -0.1862
      2 C          63.9526   91.8307    9.7918 C.3     1  UNL1        0.1775
      3 C          62.7788   91.2154   10.4944 C.2     1  UNL1        0.2452
      4 O          61.4884   91.0079    9.7581 O.2     1  UNL1       -0.2732
      5 N          62.8952   90.8077   11.9331 N.am    1  UNL1       -0.2541
      6 C          61.7214   90.1924   12.6357 C.3     1  UNL1        0.1577
      7 C          61.8378   89.7846   14.0745 C.2     1  UNL1        0.2445
      8 O          60.6640   89.1694   14.7770 O.2     1  UNL1       -0.2731
      9 N          63.1282   89.9922   14.8108 N.am    1  UNL1       -0.2705
     10 C          64.3020   90.6075   14.1082 C.3     1  UNL1        0.1359
     11 C          64.1855   91.0152   12.6694 C.3     1  UNL1        0.1908
     12 N          65.3593   91.6305   11.9668 N.am    1  UNL1       -0.1863
     13 C          66.6496   91.8380   12.7031 C.2     1  UNL1        0.3191
     14 O          66.7661   91.4303   14.1419 O.2     1  UNL1       -0.2512
     15 N          67.8234   92.4533   12.0006 N.am    1  UNL1       -0.2836
     16 H          67.7470   92.7209   11.0562 H       1  UNL1        0.1513
     17 C          66.4167   92.6535    9.8255 C.3     1  UNL1        0.1188
     18 C          67.6412   94.7541    8.9102 C.2     1  UNL1       -0.0034
     19 C          66.5000   94.1429    9.6677 C.2     1  UNL1       -0.0071
     20 C          60.4311   89.9849   11.8995 C.3     1  UNL1        0.0556
     21 C          60.3189   88.8947   10.8753 C.ar    1  UNL1       -0.0198
     22 C          60.9058   87.5423   11.1521 C.ar    1  UNL1       -0.0011
     23 C          60.7936   86.4521   10.1279 C.ar    1  UNL1        0.0363
     24 C          60.0946   86.7143    8.8270 C.ar    1  UNL1        0.1337
     25 O          59.9824   85.6241    7.8028 O.3     1  UNL1       -0.5055
     26 C          59.5077   88.0667    8.5501 C.ar    1  UNL1        0.0363
     27 C          59.6199   89.1569    9.5743 C.ar    1  UNL1       -0.0011
     28 H          60.3490   84.7793    7.9757 H       1  UNL1        0.2922
     29 C          63.2446   89.5844   16.2495 C.3     1  UNL1        0.1217
     30 C          63.1021   88.1415   16.6341 C.ar    1  UNL1        0.0135
     31 C          62.5039   87.7742   17.9597 C.ar    1  UNL1       -0.0012
     32 C          62.3613   86.3314   18.3443 C.ar    1  UNL1       -0.0002
     33 C          62.8169   85.2559   17.4032 C.ar    1  UNL1        0.0016
     34 C          63.4150   85.6232   16.0776 C.ar    1  UNL1        0.0214
     35 C          63.9495   84.7884   14.9518 C.ar    1  UNL1        0.0721
     36 C          64.4225   85.7153   13.8715 C.ar    1  UNL1        0.0805
     37 N          64.1802   87.1229   14.3296 N.ar    1  UNL1       -0.3241
     38 C          64.5038   88.3688   13.5594 C.3     1  UNL1        0.1305
     39 C          63.5576   87.0660   15.6930 C.ar    1  UNL1        0.0577
     40 C          64.0019   83.2898   14.9131 C.2     1  UNL1        0.2506
     41 O          64.4075   82.5217   16.1361 O.2     1  UNL1       -0.2699
     42 N          63.6488   82.5593   13.6516 N.am    1  UNL1       -0.2732
     43 C          63.7011   81.0607   13.6128 C.3     1  UNL1        0.1110
     44 C          63.3480   80.3302   12.3512 C.3     1  UNL1        0.0940
     45 N          62.9424   81.0983   11.1283 N.3     1  UNL1       -0.2677
     46 C          62.8900   82.5969   11.1670 C.3     1  UNL1        0.0940
     47 C          63.2432   83.3274   12.4286 C.3     1  UNL1        0.1110
     48 C          62.5892   80.3678    9.8667 C.3     1  UNL1        0.1043
     49 C          63.1147   78.9829    9.6298 C.3     1  UNL1        0.1544
     50 O          62.3754   77.7969   10.1745 O.3     1  UNL1       -0.3805
     51 H          62.4016   77.8168   11.1439 H       1  UNL1        0.2105
     52 C          69.1137   92.6608   12.7368 C.3     1  UNL1        0.1177
     53 C          69.1135   92.7777   14.2322 C.ar    1  UNL1       -0.0025
     54 C          69.9585   91.8526   15.0569 C.ar    1  UNL1       -0.0026
     55 C          69.9583   91.9694   16.5524 C.ar    1  UNL1       -0.0003
     56 C          69.1132   93.0114   17.2231 C.ar    1  UNL1       -0.0000
     57 C          68.2681   93.9366   16.3984 C.ar    1  UNL1       -0.0003
     58 C          68.2683   93.8197   14.9030 C.ar    1  UNL1       -0.0026
@<TRIPOS>BOND
     1    18    19    2
     2    19    17    1
     3    17     1    1
     4     1     2    1
     5     2     3    1
     6     3     4    2
     7     3     5   am
     8     5     6    1
     9     6    20    1
    10    20    21    1
    11    21    22   ar
    12    22    23   ar
    13    23    24   ar
    14    24    25    1
    15    24    26   ar
    16    26    27   ar
    17     6     7    1
    18     7     8    2
    19     7     9   am
    20     9    29    1
    21    29    30    1
    22    30    31   ar
    23    31    32   ar
    24    32    33   ar
    25    33    34   ar
    26    34    35   ar
    27    35    40    1
    28    40    41    2
    29    40    42   am
    30    42    43    1
    31    43    44    1
    32    44    45    1
    33    45    48    1
    34    48    49    1
    35    49    50    1
    36    45    46    1
    37    46    47    1
    38    35    36   ar
    39    36    37   ar
    40    37    38    1
    41    37    39   ar
    42     9    10    1
    43    11    10    1
    44    11    12    1
    45    12    13   am
    46    13    14    2
    47    13    15   am
    48    15    52    1
    49    52    53    1
    50    53    54   ar
    51    54    55   ar
    52    55    56   ar
    53    56    57   ar
    54    57    58   ar
    55    12     1    1
    56    58    53   ar
    57    11     5    1
    58    27    21   ar
    59    39    30   ar
    60    39    34   ar
    61    47    42    1
    62    25    28    1
    63    50    51    1
    64    15    16    1
@<TRIPOS>MOLECULE
*****
 58 64 0 0 0
SMALL
GASTEIGER

@<TRIPOS>ATOM
      1 N          63.1427   82.1347   13.9994 N.3     1  UNL1       -0.1862
      2 C          63.2726   82.8079   15.3336 C.3     1  UNL1        0.1775
      3 C          63.3390   84.3042   15.4153 C.2     1  UNL1        0.2452
      4 O          63.4689   84.9774   16.7496 O.2     1  UNL1       -0.2732
      5 N          63.2757   85.1273   14.1630 N.am    1  UNL1       -0.2541
      6 C          63.3422   86.6236   14.2448 C.3     1  UNL1        0.1577
      7 C          63.2789   87.4467   12.9924 C.2     1  UNL1        0.2445
      8 O          63.3454   88.9430   13.0742 O.2     1  UNL1       -0.2731
      9 N          63.1490   86.7736   11.6582 N.am    1  UNL1       -0.2705
     10 C          63.0825   85.2773   11.5764 C.3     1  UNL1        0.1359
     11 C          63.1459   84.4541   12.8289 C.3     1  UNL1        0.1908
     12 N          63.0794   82.9579   12.7471 N.am    1  UNL1       -0.1863
     13 C          62.9495   82.2847   11.4129 C.2     1  UNL1        0.3191
     14 O          62.8862   83.1078   10.1605 O.2     1  UNL1       -0.2512
     15 N          62.8830   80.7884   11.3311 N.am    1  UNL1       -0.2836
     16 H          62.9246   80.2482   12.1531 H       1  UNL1        0.1513
     17 C          63.0762   80.6384   13.9176 C.3     1  UNL1        0.1188
     18 C          60.4868   80.7207   14.1131 C.2     1  UNL1       -0.0034
     19 C          61.7644   79.9348   14.1021 C.2     1  UNL1       -0.0071
     20 C          63.4720   87.2968   15.5789 C.3     1  UNL1        0.0556
     21 C          63.9064   88.7304   15.6565 C.ar    1  UNL1       -0.0198
     22 C          63.1682   89.6909   16.5411 C.ar    1  UNL1       -0.0011
     23 C          63.6026   91.1245   16.6187 C.ar    1  UNL1        0.0363
     24 C          64.7751   91.5977   15.8117 C.ar    1  UNL1        0.1337
     25 O          65.2094   93.0313   15.8893 O.3     1  UNL1       -0.5055
     26 C          65.5133   90.6372   14.9270 C.ar    1  UNL1        0.0363
     27 C          65.0790   89.2036   14.8494 C.ar    1  UNL1       -0.0011
     28 H          64.7483   93.6313   16.4419 H       1  UNL1        0.2922
     29 C          63.0857   87.5967   10.4059 C.3     1  UNL1        0.1217
     30 C          61.9567   87.4030    9.4374 C.ar    1  UNL1        0.0135
     31 C          61.5455   86.0186    9.0319 C.ar    1  UNL1       -0.0012
     32 C          60.4166   85.8250    8.0635 C.ar    1  UNL1       -0.0002
     33 C          59.6989   87.0157    7.5004 C.ar    1  UNL1        0.0016
     34 C          60.1101   88.4000    7.9058 C.ar    1  UNL1        0.0214
     35 C          59.5929   89.7542    7.5200 C.ar    1  UNL1        0.0721
     36 C          60.4022   90.7847    8.2500 C.ar    1  UNL1        0.0805
     37 N          61.4195   90.0676    9.0870 N.ar    1  UNL1       -0.3241
     38 C          62.4385   90.7112    9.9799 C.3     1  UNL1        0.1305
     39 C          61.2390   88.5937    8.8743 C.ar    1  UNL1        0.0577
     40 C          58.4645   90.0294    6.5707 C.2     1  UNL1        0.2506
     41 O          57.1034   89.4584    6.8380 O.2     1  UNL1       -0.2699
     42 N          58.6972   90.8755    5.3542 N.am    1  UNL1       -0.2732
     43 C          57.5689   91.1508    4.4050 C.3     1  UNL1        0.1110
     44 C          57.8016   91.9969    3.1885 C.3     1  UNL1        0.0940
     45 N          59.1627   92.5679    2.9212 N.3     1  UNL1       -0.2677
     46 C          60.2911   92.2926    3.8705 C.3     1  UNL1        0.0940
     47 C          60.0584   91.4465    5.0870 C.3     1  UNL1        0.1110
     48 C          59.3954   93.4140    1.7047 C.3     1  UNL1        0.1043
     49 C          59.9642   92.7986    0.4607 C.3     1  UNL1        0.1544
     50 O          59.3654   91.5406   -0.0950 O.3     1  UNL1       -0.3805
     51 H          59.5100   90.8111    0.5277 H       1  UNL1        0.2105
     52 C          62.7532   80.1152    9.9970 C.3     1  UNL1        0.1177
     53 C          63.2346   78.7059    9.8180 C.ar    1  UNL1       -0.0025
     54 C          62.6857   77.6103   10.6829 C.ar    1  UNL1       -0.0026
     55 C          63.1672   76.2010   10.5039 C.ar    1  UNL1       -0.0003
     56 C          64.1975   75.8873    9.4600 C.ar    1  UNL1       -0.0000
     57 C          64.7465   76.9830    8.5949 C.ar    1  UNL1       -0.0003
     58 C          64.2651   78.3923    8.7739 C.ar    1  UNL1       -0.0026
@<TRIPOS>BOND
     1    18    19    2
     2    19    17    1
     3    17     1    1
     4     1     2    1
     5     2     3    1
     6     3     4    2
     7     3     5   am
     8     5     6    1
     9     6    20    1
    10    20    21    1
    11    21    22   ar
    12    22    23   ar
    13    23    24   ar
    14    24    25    1
    15    24    26   ar
    16    26    27   ar
    17     6     7    1
    18     7     8    2
    19     7     9   am
    20     9    29    1
    21    29    30    1
    22    30    31   ar
    23    31    32   ar
    24    32    33   ar
    25    33    34   ar
    26    34    35   ar
    27    35    40    1
    28    40    41    2
    29    40    42   am
    30    42    43    1
    31    43    44    1
    32    44    45    1
    33    45    48    1
    34    48    49    1
    35    49    50    1
    36    45    46    1
    37    46    47    1
    38    35    36   ar
    39    36    37   ar
    40    37    38    1
    41    37    39   ar
    42     9    10    1
    43    11    10    1
    44    11    12    1
    45    12    13   am
    46    13    14    2
    47    13    15   am
    48    15    52    1
    49    52    53    1
    50    53    54   ar
    51    54    55   ar
    52    55    56   ar
    53    56    57   ar
    54    57    58   ar
    55    12     1    1
    56    58    53   ar
    57    11     5    1
    58    27    21   ar
    59    39    30   ar
    60    39    34   ar
    61    47    42    1
    62    25    28    1
    63    50    51    1
    64    15    16    1
