@<TRIPOS>MOLECULE
*****
 49 55 0 0 0
SMALL
GASTEIGER

@<TRIPOS>ATOM
      1 C          60.4963   88.1527    8.7225 C.3     1  UNL1        0.1543
      2 O          58.5881   89.5370    7.0403 O.2     1  UNL1       -0.2526
      3 C          59.3679   89.6117    6.8929 C.2     1  UNL1        0.3043
      4 N          60.6071   89.0597    7.5329 N.am    1  UNL1       -0.2822
      5 N          59.4786   90.5188    5.7032 N.am    1  UNL1       -0.2641
      6 C          58.2395   91.0708    5.0631 C.3     1  UNL1        0.0966
      7 C          58.3502   91.9778    3.8736 C.3     1  UNL1        0.0415
      8 C          59.7000   92.3327    3.3241 C.3     1  UNL1        0.0806
      9 C          60.9392   91.7807    3.9642 C.3     1  UNL1        0.0415
     10 C          60.8285   90.8737    5.1537 C.3     1  UNL1        0.0966
     11 H          61.4930   89.2926    7.1723 H       1  UNL1        0.1514
     12 N          59.8107   93.2397    2.1345 N.am    1  UNL1       -0.2613
     13 C          59.7618   92.6682    0.7485 C.3     1  UNL1        0.1228
     14 C          59.8725   93.5753   -0.4411 C.ar    1  UNL1        0.0112
     15 C          59.8236   93.0038   -1.8271 C.ar    1  UNL1       -0.0014
     16 C          59.9343   93.9108   -3.0166 C.ar    1  UNL1       -0.0002
     17 C          60.0939   95.3893   -2.8202 C.ar    1  UNL1        0.0013
     18 C          60.1427   95.9608   -1.4342 C.ar    1  UNL1        0.0144
     19 C          60.0321   95.0538   -0.2447 C.ar    1  UNL1        0.0492
     20 N          60.0809   95.6252    1.1414 N.am    1  UNL1       -0.2684
     21 C          59.9703   94.7182    2.3309 C.2     1  UNL1        0.3079
     22 O          60.0192   95.2897    3.7170 O.2     1  UNL1       -0.2522
     23 H          60.1857   96.5956    1.2703 H       1  UNL1        0.1564
     24 C          60.2838   88.7317   10.0898 C.2     1  UNL1        0.2439
     25 O          58.9705   88.5411   10.7891 O.2     1  UNL1       -0.2731
     26 N          61.3845   89.5012   10.7579 N.am    1  UNL1       -0.2781
     27 C          62.6977   89.6917   10.0586 C.3     1  UNL1        0.0948
     28 C          63.7985   90.4613   10.7266 C.3     1  UNL1        0.0375
     29 C          63.5859   91.0402   12.0940 C.3     1  UNL1        0.0609
     30 C          62.2726   90.8496   12.7933 C.3     1  UNL1        0.0375
     31 C          61.1719   90.0801   12.1252 C.3     1  UNL1        0.0948
     32 N          64.6866   91.8097   12.7620 N.3     1  UNL1       -0.2738
     33 C          65.3484   92.9483   12.0440 C.3     1  UNL1        0.0720
     34 C          66.4491   93.7179   12.7121 C.3     1  UNL1        0.0174
     35 C          66.8880   93.3488   14.0981 C.3     1  UNL1        0.0029
     36 C          66.2261   92.2101   14.8161 C.3     1  UNL1        0.0174
     37 C          65.1255   91.4406   14.1481 C.3     1  UNL1        0.0720
     38 C          60.5982   86.6667    8.5447 C.3     1  UNL1        0.0560
     39 C          61.5232   85.8689    9.4153 C.2     1  UNL1       -0.0100
     40 C          61.3824   85.9241   10.9076 C.2     1  UNL1        0.0350
     41 C          62.3074   85.1263   11.7782 C.2     1  UNL1        0.1614
     42 O          62.4087   84.9821   13.2678 O.3     1  UNL1       -0.4079
     43 C          63.5370   84.0400   13.5667 C.2     1  UNL1        0.4298
     44 O          63.9898   83.6112   14.9309 O.2     1  UNL1       -0.2238
     45 N          64.1331   83.6019   12.2617 N.am    1  UNL1       -0.1430
     46 C          63.3731   84.2733   11.1565 C.2     1  UNL1        0.0941
     47 C          63.5139   84.2181    9.6641 C.3     1  UNL1        0.0840
     48 C          62.5889   85.0159    8.7935 C.2     1  UNL1        0.0375
     49 CL         62.7296   84.9607    7.3011 Cl      1  UNL1       -0.0869
@<TRIPOS>BOND
     1     2     3    2
     2     3     4   am
     3     4     1    1
     4     1    38    1
     5    38    39    1
     6    39    40    1
     7    40    41    2
     8    41    42    1
     9    42    43    1
    10    43    44    2
    11    43    45    1
    12    45    46    2
    13    46    47    1
    14    47    48    1
    15    48    49    1
    16     1    24    1
    17    24    25    2
    18    24    26   am
    19    26    27    1
    20    27    28    1
    21    28    29    1
    22    29    32    1
    23    32    33    1
    24    33    34    1
    25    34    35    1
    26    35    36    1
    27    36    37    1
    28    29    30    1
    29    30    31    1
    30     3     5   am
    31     5     6    1
    32     6     7    1
    33     7     8    1
    34     8    12    1
    35    12    13    1
    36    13    14    1
    37    14    15   ar
    38    15    16   ar
    39    16    17   ar
    40    17    18   ar
    41    18    19   ar
    42    19    20    1
    43    20    21   am
    44    21    22    2
    45     8     9    1
    46     9    10    1
    47    48    39    2
    48    31    26    1
    49    10     5    1
    50    46    41    1
    51    37    32    1
    52    21    12   am
    53    19    14   ar
    54     4    11    1
    55    20    23    1
@<TRIPOS>MOLECULE
*****
 49 55 0 0 0
SMALL
GASTEIGER

@<TRIPOS>ATOM
      1 C          60.2037   89.0622    8.1199 C.3     1  UNL1        0.1543
      2 O          58.6957   90.5294    6.1297 O.2     1  UNL1       -0.2526
      3 C          59.4899   90.4926    6.0720 C.2     1  UNL1        0.3043
      4 N          60.5656   89.8448    6.8925 N.am    1  UNL1       -0.2822
      5 N          59.8518   91.2753    4.8445 N.am    1  UNL1       -0.2641
      6 C          58.7761   91.9231    4.0240 C.3     1  UNL1        0.0966
      7 C          59.1380   92.7057    2.7966 C.3     1  UNL1        0.0415
      8 C          60.5755   92.8404    2.3897 C.3     1  UNL1        0.0806
      9 C          61.6511   92.1926    3.2102 C.3     1  UNL1        0.0415
     10 C          61.2892   91.4100    4.4376 C.3     1  UNL1        0.0966
     11 H          61.5090   89.9332    6.6254 H       1  UNL1        0.1514
     12 N          60.9373   93.6231    1.1622 N.am    1  UNL1       -0.2613
     13 C          61.5616   92.9298   -0.0124 C.3     1  UNL1        0.1228
     14 C          61.9234   93.7124   -1.2398 C.ar    1  UNL1        0.0112
     15 C          62.5477   93.0192   -2.4144 C.ar    1  UNL1       -0.0014
     16 C          62.9095   93.8018   -3.6418 C.ar    1  UNL1       -0.0002
     17 C          62.6469   95.2777   -3.6946 C.ar    1  UNL1        0.0013
     18 C          62.0226   95.9710   -2.5201 C.ar    1  UNL1        0.0144
     19 C          61.6609   95.1883   -1.2927 C.ar    1  UNL1        0.0492
     20 N          61.0365   95.8816   -0.1181 N.am    1  UNL1       -0.2684
     21 C          60.6747   95.0990    1.1093 C.2     1  UNL1        0.3079
     22 O          60.0504   95.7922    2.2839 O.2     1  UNL1       -0.2522
     23 H          60.8642   96.8503   -0.1528 H       1  UNL1        0.1564
     24 C          60.2460   87.5630    8.0931 C.2     1  UNL1        0.2439
     25 O          59.5505   86.8126    6.9962 O.2     1  UNL1       -0.2731
     26 N          60.9838   86.8143    9.1631 N.am    1  UNL1       -0.2781
     27 C          61.6793   87.5648   10.2600 C.3     1  UNL1        0.0948
     28 C          62.4172   86.8160   11.3301 C.3     1  UNL1        0.0375
     29 C          62.4595   85.3169   11.3033 C.3     1  UNL1        0.0609
     30 C          61.7640   84.5664   10.2063 C.3     1  UNL1        0.0375
     31 C          61.0262   85.3152    9.1363 C.3     1  UNL1        0.0948
     32 N          63.1973   84.5681   12.3733 N.3     1  UNL1       -0.2738
     33 C          63.7897   85.3095   13.5349 C.3     1  UNL1        0.0720
     34 C          64.5276   84.5608   14.6050 C.3     1  UNL1        0.0174
     35 C          64.6730   83.0707   14.5134 C.3     1  UNL1        0.0029
     36 C          64.0805   82.3293   13.3517 C.3     1  UNL1        0.0174
     37 C          63.3427   83.0780   12.2817 C.3     1  UNL1        0.0720
     38 C          59.7995   89.7788    9.3742 C.3     1  UNL1        0.0560
     39 C          60.8390   90.1713   10.3818 C.2     1  UNL1       -0.0100
     40 C          62.1223   90.8020    9.9287 C.2     1  UNL1        0.0350
     41 C          63.1618   91.1946   10.9363 C.2     1  UNL1        0.1614
     42 O          64.5126   91.8300   10.7894 O.3     1  UNL1       -0.4079
     43 C          65.1037   91.9846   12.1593 C.2     1  UNL1        0.4298
     44 O          66.4448   92.5754   12.4795 O.2     1  UNL1       -0.2238
     45 N          64.1181   91.4447   13.1530 N.am    1  UNL1       -0.1430
     46 C          62.9181   90.9564   12.3971 C.2     1  UNL1        0.0941
     47 C          61.6347   90.3257   12.8503 C.3     1  UNL1        0.0840
     48 C          60.5952   89.9332   11.8427 C.2     1  UNL1        0.0375
     49 CL         59.3119   89.3025   12.2958 Cl      1  UNL1       -0.0869
@<TRIPOS>BOND
     1     2     3    2
     2     3     4   am
     3     4     1    1
     4     1    38    1
     5    38    39    1
     6    39    40    1
     7    40    41    2
     8    41    42    1
     9    42    43    1
    10    43    44    2
    11    43    45    1
    12    45    46    2
    13    46    47    1
    14    47    48    1
    15    48    49    1
    16     1    24    1
    17    24    25    2
    18    24    26   am
    19    26    27    1
    20    27    28    1
    21    28    29    1
    22    29    32    1
    23    32    33    1
    24    33    34    1
    25    34    35    1
    26    35    36    1
    27    36    37    1
    28    29    30    1
    29    30    31    1
    30     3     5   am
    31     5     6    1
    32     6     7    1
    33     7     8    1
    34     8    12    1
    35    12    13    1
    36    13    14    1
    37    14    15   ar
    38    15    16   ar
    39    16    17   ar
    40    17    18   ar
    41    18    19   ar
    42    19    20    1
    43    20    21   am
    44    21    22    2
    45     8     9    1
    46     9    10    1
    47    48    39    2
    48    31    26    1
    49    10     5    1
    50    46    41    1
    51    37    32    1
    52    21    12   am
    53    19    14   ar
    54     4    11    1
    55    20    23    1
@<TRIPOS>MOLECULE
*****
 49 55 0 0 0
SMALL
GASTEIGER

@<TRIPOS>ATOM
      1 C          59.7046   88.6643    7.5526 C.3     1  UNL1        0.1543
      2 O          60.2337   89.1932   10.3504 O.2     1  UNL1       -0.2526
      3 C          60.7555   89.4373    9.7993 C.2     1  UNL1        0.3043
      4 N          60.8116   89.3432    8.3033 N.am    1  UNL1       -0.2822
      5 N          61.8625   90.1162   10.5502 N.am    1  UNL1       -0.2641
      6 C          61.8064   90.2104   12.0461 C.3     1  UNL1        0.0966
      7 C          62.9133   90.8892   12.7969 C.3     1  UNL1        0.0415
      8 C          64.0764   91.4740   12.0517 C.3     1  UNL1        0.0806
      9 C          64.1325   91.3799   10.5557 C.3     1  UNL1        0.0415
     10 C          63.0256   90.7010    9.8050 C.3     1  UNL1        0.0966
     11 H          61.5749   89.7270    7.8142 H       1  UNL1        0.1514
     12 N          65.1834   92.1529   12.8025 N.am    1  UNL1       -0.2613
     13 C          65.7665   91.5076   14.0246 C.3     1  UNL1        0.1228
     14 C          66.8735   92.1865   14.7755 C.ar    1  UNL1        0.0112
     15 C          67.4566   91.5413   15.9976 C.ar    1  UNL1       -0.0014
     16 C          68.5636   92.2202   16.7483 C.ar    1  UNL1       -0.0002
     17 C          69.0874   93.5444   16.2770 C.ar    1  UNL1        0.0013
     18 C          68.5043   94.1896   15.0549 C.ar    1  UNL1        0.0144
     19 C          67.3974   93.5107   14.3042 C.ar    1  UNL1        0.0492
     20 N          66.8142   94.1560   13.0820 N.am    1  UNL1       -0.2684
     21 C          65.7073   93.4771   12.3312 C.2     1  UNL1        0.3079
     22 O          65.1241   94.1224   11.1091 O.2     1  UNL1       -0.2522
     23 H          67.1580   95.0251   12.7726 H       1  UNL1        0.1564
     24 C          58.7565   89.4747    6.7193 C.2     1  UNL1        0.2439
     25 O          57.2767   89.3487    6.9303 O.2     1  UNL1       -0.2731
     26 N          59.2881   90.4110    5.6750 N.am    1  UNL1       -0.2781
     27 C          60.7678   90.5370    5.4640 C.3     1  UNL1        0.0948
     28 C          61.2995   91.4734    4.4196 C.3     1  UNL1        0.0375
     29 C          60.3514   92.2838    3.5863 C.3     1  UNL1        0.0609
     30 C          58.8716   92.1577    3.7973 C.3     1  UNL1        0.0375
     31 C          58.3400   91.2214    4.8416 C.3     1  UNL1        0.0948
     32 N          60.8830   93.2201    2.5420 N.3     1  UNL1       -0.2738
     33 C          62.1635   92.8998    1.8295 C.3     1  UNL1        0.0720
     34 C          62.6952   93.8362    0.7852 C.3     1  UNL1        0.0174
     35 C          61.9463   95.0928    0.4534 C.3     1  UNL1        0.0029
     36 C          60.6657   95.4131    1.1659 C.3     1  UNL1        0.0174
     37 C          60.1341   94.4767    2.2102 C.3     1  UNL1        0.0720
     38 C          59.5457   87.1750    7.6351 C.3     1  UNL1        0.0560
     39 C          60.5578   86.3527    8.3764 C.2     1  UNL1       -0.0100
     40 C          60.6448   86.4393    9.8713 C.2     1  UNL1        0.0350
     41 C          61.6569   85.6170   10.6126 C.2     1  UNL1        0.1614
     42 O          61.9745   85.4940   12.0734 O.3     1  UNL1       -0.4079
     43 C          63.0959   84.5090   12.2226 C.2     1  UNL1        0.4298
     44 O          63.7305   84.0842   13.5137 O.2     1  UNL1       -0.2238
     45 N          63.4713   84.0233   10.8539 N.am    1  UNL1       -0.1430
     46 C          62.5820   84.7081    9.8590 C.2     1  UNL1        0.0941
     47 C          62.4950   84.6215    8.3639 C.3     1  UNL1        0.0840
     48 C          61.4829   85.4438    7.6227 C.2     1  UNL1        0.0375
     49 CL         61.3959   85.3571    6.1277 Cl      1  UNL1       -0.0869
@<TRIPOS>BOND
     1     2     3    2
     2     3     4   am
     3     4     1    1
     4     1    38    1
     5    38    39    1
     6    39    40    1
     7    40    41    2
     8    41    42    1
     9    42    43    1
    10    43    44    2
    11    43    45    1
    12    45    46    2
    13    46    47    1
    14    47    48    1
    15    48    49    1
    16     1    24    1
    17    24    25    2
    18    24    26   am
    19    26    27    1
    20    27    28    1
    21    28    29    1
    22    29    32    1
    23    32    33    1
    24    33    34    1
    25    34    35    1
    26    35    36    1
    27    36    37    1
    28    29    30    1
    29    30    31    1
    30     3     5   am
    31     5     6    1
    32     6     7    1
    33     7     8    1
    34     8    12    1
    35    12    13    1
    36    13    14    1
    37    14    15   ar
    38    15    16   ar
    39    16    17   ar
    40    17    18   ar
    41    18    19   ar
    42    19    20    1
    43    20    21   am
    44    21    22    2
    45     8     9    1
    46     9    10    1
    47    48    39    2
    48    31    26    1
    49    10     5    1
    50    46    41    1
    51    37    32    1
    52    21    12   am
    53    19    14   ar
    54     4    11    1
    55    20    23    1
