@<TRIPOS>MOLECULE
*****
 50 57 0 0 0
SMALL
GASTEIGER

@<TRIPOS>ATOM
      1 C          60.0344   88.6857    8.0879 C.3     1  UNL1        0.1239
      2 C          59.0485   88.2101    7.0625 C.3     1  UNL1        0.0374
      3 C          58.8530   89.3105    6.0621 C.3     1  UNL1        0.0739
      4 N          59.7180   90.4662    6.4693 N.3     1  UNL1       -0.2638
      5 C          60.4482   90.0801    7.7213 C.3     1  UNL1        0.0913
      6 C          60.9750   88.8783    9.2405 C.2     1  UNL1        0.2357
      7 O          61.7946   87.7257    9.7403 O.2     1  UNL1       -0.2739
      8 N          61.0959   90.2234    9.8932 N.am    1  UNL1       -0.2864
      9 H          60.5580   90.9799    9.5652 H       1  UNL1        0.1546
     10 C          62.0365   90.4160   11.0458 C.2     1  UNL1        0.0320
     11 C          61.7442   89.7711   12.3681 C.2     1  UNL1        0.0122
     12 C          62.6847   89.9637   13.5206 C.2     1  UNL1        0.0216
     13 C          63.9175   90.8011   13.3508 C.2     1  UNL1        0.1008
     14 N          65.0206   91.1674   14.2990 N.2     1  UNL1       -0.1483
     15 N          65.9946   92.0387   13.5627 N.2     1  UNL1       -0.1483
     16 C          65.4935   92.2109   12.1594 C.2     1  UNL1        0.1008
     17 C          64.2098   91.4460   12.0284 C.2     1  UNL1        0.0223
     18 C          63.2693   91.2534   10.8759 C.3     1  UNL1        0.0706
     19 C          66.1592   93.0080   11.0770 C.ar    1  UNL1        0.0224
     20 C          67.2875   92.4093   10.2906 C.ar    1  UNL1        0.0049
     21 C          67.9532   93.2064    9.2083 C.ar    1  UNL1        0.0402
     22 C          67.4905   94.6022    8.9123 C.ar    1  UNL1        0.1764
     23 C          66.3622   95.2009    9.6987 C.ar    1  UNL1        0.1765
     24 C          65.6965   94.4038   10.7810 C.ar    1  UNL1        0.0417
     25 O          66.1250   96.5901    9.1848 O.3     1  UNL1       -0.4346
     26 C          67.1067   96.8499    8.0809 C.3     1  UNL1        0.4294
     27 O          67.9507   95.6213    7.9125 O.3     1  UNL1       -0.4346
     28 C          59.7878   86.1133    7.8211 C.3     1  UNL1        0.0696
     29 S          59.8173   87.3316    8.6955 S.3     1  UNL1       -0.1309
     30 C          59.8327   91.7778    5.7506 C.3     1  UNL1        0.1587
     31 C          59.1164   91.9851    4.4491 C.2     1  UNL1        0.2423
     32 O          57.6269   91.8223    4.3787 O.2     1  UNL1       -0.2733
     33 N          59.8895   92.3551    3.2181 N.am    1  UNL1       -0.2740
     34 C          59.1731   92.5623    1.9166 C.3     1  UNL1        0.1196
     35 C          59.9462   92.9323    0.6856 C.2     1  UNL1       -0.0089
     36 C          61.4356   93.0951    0.7560 C.2     1  UNL1       -0.0231
     37 C          62.1520   92.8879    2.0575 C.3     1  UNL1        0.0476
     38 C          61.3789   92.5179    3.2885 C.3     1  UNL1        0.0984
     39 C          62.2087   93.4651   -0.4750 C.ar    1  UNL1       -0.0042
     40 C          63.5397   94.1452   -0.3486 C.ar    1  UNL1       -0.0002
     41 C          64.3128   94.5153   -1.5796 C.ar    1  UNL1        0.0030
     42 C          63.7549   94.2052   -2.9370 C.ar    1  UNL1        0.0358
     43 C          62.4239   93.5251   -3.0634 C.ar    1  UNL1        0.0030
     44 C          61.6508   93.1551   -1.8324 C.ar    1  UNL1       -0.0002
     45 C          64.5280   94.5752   -4.1680 C.ar    1  UNL1        0.1623
     46 N          64.9291   93.5137   -5.1491 N.ar    1  UNL1       -0.2250
     47 C          65.7022   93.8837   -6.3802 C.ar    1  UNL1        0.1022
     48 C          66.0742   95.3152   -6.6301 C.ar    1  UNL1        0.0414
     49 C          65.6731   96.3766   -5.6491 C.ar    1  UNL1        0.1022
     50 N          64.9000   96.0066   -4.4181 N.ar    1  UNL1       -0.2250
@<TRIPOS>BOND
     1    28    29    1
     2     1    29    1
     3     1     6    1
     4     6     7    2
     5     6     8   am
     6     8    10    1
     7    10    11    2
     8    11    12    1
     9    12    13    2
    10    13    14    1
    11    14    15    2
    12    15    16    1
    13    16    19    1
    14    19    20   ar
    15    20    21   ar
    16    21    22   ar
    17    22    23   ar
    18    23    24   ar
    19    23    25    1
    20    25    26    1
    21    26    27    1
    22    16    17    2
    23    17    18    1
    24     1     2    1
    25     2     3    1
    26     3     4    1
    27     4    30    1
    28    30    31    1
    29    31    32    2
    30    31    33   am
    31    33    34    1
    32    34    35    1
    33    35    36    2
    34    36    39    1
    35    39    40   ar
    36    40    41   ar
    37    41    42   ar
    38    42    45    1
    39    45    46   ar
    40    46    47   ar
    41    47    48   ar
    42    48    49   ar
    43    49    50   ar
    44    42    43   ar
    45    43    44   ar
    46    36    37    1
    47    37    38    1
    48     4     5    1
    49     5     1    1
    50    18    10    1
    51    38    33    1
    52    17    13    1
    53    44    39   ar
    54    24    19   ar
    55    50    45   ar
    56    27    22    1
    57     8     9    1
@<TRIPOS>MOLECULE
*****
 50 57 0 0 0
SMALL
GASTEIGER

@<TRIPOS>ATOM
      1 C          59.7101   88.5331    8.0970 C.3     1  UNL1        0.1239
      2 C          58.9602   88.0377    6.8960 C.3     1  UNL1        0.0374
      3 C          58.9255   89.1431    5.8828 C.3     1  UNL1        0.0739
      4 N          59.6540   90.3217    6.4575 N.3     1  UNL1       -0.2638
      5 C          60.1389   89.9447    7.8259 C.3     1  UNL1        0.0913
      6 C          60.4006   88.7425    9.4121 C.2     1  UNL1        0.2357
      7 O          59.6862   88.4271   10.6928 O.2     1  UNL1       -0.2739
      8 N          61.8053   89.2673    9.4464 N.am    1  UNL1       -0.2864
      9 H          62.2742   89.4743    8.6059 H       1  UNL1        0.1546
     10 C          62.4958   89.4767   10.7616 C.2     1  UNL1        0.0320
     11 C          62.8289   90.8652   11.2211 C.2     1  UNL1        0.0122
     12 C          63.5193   91.0746   12.5361 C.2     1  UNL1        0.0216
     13 C          63.8767   89.8955   13.3917 C.2     1  UNL1        0.1008
     14 N          64.5550   89.7921   14.7256 N.2     1  UNL1       -0.1483
     15 N          64.6411   88.3397   15.0905 N.2     1  UNL1       -0.1483
     16 C          64.0161   87.5455   13.9821 C.2     1  UNL1        0.1008
     17 C          63.5436   88.5070   12.9322 C.2     1  UNL1        0.0223
     18 C          62.8532   88.2976   11.6171 C.3     1  UNL1        0.0706
     19 C          63.8863   86.0520   13.9323 C.ar    1  UNL1        0.0224
     20 C          64.3893   85.2170   15.0723 C.ar    1  UNL1        0.0049
     21 C          64.2595   83.7234   15.0225 C.ar    1  UNL1        0.0402
     22 C          63.6266   83.0648   13.8327 C.ar    1  UNL1        0.1764
     23 C          63.1236   83.8998   12.6927 C.ar    1  UNL1        0.1765
     24 C          63.2534   85.3934   12.7424 C.ar    1  UNL1        0.0417
     25 O          62.5493   82.9761   11.6597 O.3     1  UNL1       -0.4346
     26 C          62.6975   81.5703   12.1613 C.3     1  UNL1        0.4294
     27 O          63.3633   81.6251   13.5043 O.3     1  UNL1       -0.4346
     28 C          60.1213   85.9680    8.0662 C.3     1  UNL1        0.0696
     29 S          59.4257   87.1653    8.6430 S.3     1  UNL1       -0.1309
     30 C          59.8611   91.6450    5.7822 C.3     1  UNL1        0.1587
     31 C          59.1404   91.9556    4.5039 C.2     1  UNL1        0.2423
     32 O          57.6427   91.8912    4.4526 O.2     1  UNL1       -0.2733
     33 N          59.9174   92.3307    3.2769 N.am    1  UNL1       -0.2740
     34 C          59.1967   92.6414    1.9986 C.3     1  UNL1        0.1196
     35 C          59.9737   93.0165    0.7716 C.2     1  UNL1       -0.0089
     36 C          61.4714   93.0809    0.8228 C.2     1  UNL1       -0.0231
     37 C          62.1921   92.7702    2.1011 C.3     1  UNL1        0.0476
     38 C          61.4151   92.3952    3.3281 C.3     1  UNL1        0.0984
     39 C          62.2484   93.4560   -0.4042 C.ar    1  UNL1       -0.0042
     40 C          61.7486   93.0546   -1.7603 C.ar    1  UNL1       -0.0002
     41 C          62.5256   93.4297   -2.9873 C.ar    1  UNL1        0.0030
     42 C          63.8025   94.2062   -2.8582 C.ar    1  UNL1        0.0358
     43 C          64.3023   94.6076   -1.5021 C.ar    1  UNL1        0.0030
     44 C          63.5253   94.2325   -0.2751 C.ar    1  UNL1       -0.0002
     45 C          64.5795   94.5813   -4.0852 C.ar    1  UNL1        0.1623
     46 N          64.9039   93.5399   -5.1150 N.ar    1  UNL1       -0.2250
     47 C          65.6809   93.9150   -6.3421 C.ar    1  UNL1        0.1022
     48 C          66.1336   95.3314   -6.5393 C.ar    1  UNL1        0.0414
     49 C          65.8092   96.3727   -5.5095 C.ar    1  UNL1        0.1022
     50 N          65.0321   95.9976   -4.2825 N.ar    1  UNL1       -0.2250
@<TRIPOS>BOND
     1    28    29    1
     2     1    29    1
     3     1     6    1
     4     6     7    2
     5     6     8   am
     6     8    10    1
     7    10    11    2
     8    11    12    1
     9    12    13    2
    10    13    14    1
    11    14    15    2
    12    15    16    1
    13    16    19    1
    14    19    20   ar
    15    20    21   ar
    16    21    22   ar
    17    22    23   ar
    18    23    24   ar
    19    23    25    1
    20    25    26    1
    21    26    27    1
    22    16    17    2
    23    17    18    1
    24     1     2    1
    25     2     3    1
    26     3     4    1
    27     4    30    1
    28    30    31    1
    29    31    32    2
    30    31    33   am
    31    33    34    1
    32    34    35    1
    33    35    36    2
    34    36    39    1
    35    39    40   ar
    36    40    41   ar
    37    41    42   ar
    38    42    45    1
    39    45    46   ar
    40    46    47   ar
    41    47    48   ar
    42    48    49   ar
    43    49    50   ar
    44    42    43   ar
    45    43    44   ar
    46    36    37    1
    47    37    38    1
    48     4     5    1
    49     5     1    1
    50    18    10    1
    51    38    33    1
    52    17    13    1
    53    44    39   ar
    54    24    19   ar
    55    50    45   ar
    56    27    22    1
    57     8     9    1
@<TRIPOS>MOLECULE
*****
 50 57 0 0 0
SMALL
GASTEIGER

@<TRIPOS>ATOM
      1 C          63.6408   85.1263   13.1654 C.3     1  UNL1        0.1239
      2 C          63.4448   83.7473   12.6089 C.3     1  UNL1        0.0374
      3 C          62.4264   83.8310   11.5109 C.3     1  UNL1        0.0739
      4 N          61.9929   85.2618   11.3888 N.3     1  UNL1       -0.2638
      5 C          62.7435   86.0623   12.4113 C.3     1  UNL1        0.0913
      6 C          64.0420   86.3639   13.9122 C.2     1  UNL1        0.2357
      7 O          65.0006   86.2683   15.0620 O.2     1  UNL1       -0.2739
      8 N          63.4846   87.6968   13.5093 N.am    1  UNL1       -0.2864
      9 H          62.8554   87.7595   12.7547 H       1  UNL1        0.1546
     10 C          63.8857   88.9343   14.2561 C.2     1  UNL1        0.0320
     11 C          63.4895   89.1049   15.6927 C.2     1  UNL1        0.0122
     12 C          63.8907   90.3423   16.4395 C.2     1  UNL1        0.0216
     13 C          64.6881   91.4093   15.7497 C.2     1  UNL1        0.1008
     14 N          65.2237   92.7274   16.2250 N.2     1  UNL1       -0.1483
     15 N          65.9510   93.3714   15.0820 N.2     1  UNL1       -0.1483
     16 C          65.8648   92.4514   13.9004 C.2     1  UNL1        0.1008
     17 C          65.0843   91.2387   14.3131 C.2     1  UNL1        0.0223
     18 C          64.6831   90.0013   13.5663 C.3     1  UNL1        0.0706
     19 C          66.4554   92.7003   12.5443 C.ar    1  UNL1        0.0224
     20 C          67.4604   91.7424   11.9765 C.ar    1  UNL1        0.0049
     21 C          68.0510   91.9913   10.6204 C.ar    1  UNL1        0.0402
     22 C          67.6367   93.1981    9.8319 C.ar    1  UNL1        0.1764
     23 C          66.6317   94.1560   10.3996 C.ar    1  UNL1        0.1765
     24 C          66.0410   93.9071   11.7557 C.ar    1  UNL1        0.0417
     25 O          66.4179   95.2515    9.3974 O.3     1  UNL1       -0.4346
     26 C          67.2907   94.9705    8.2103 C.3     1  UNL1        0.4294
     27 O          68.0440   93.7015    8.4788 O.3     1  UNL1       -0.4346
     28 C          64.2647   83.1462   14.7273 C.3     1  UNL1        0.0696
     29 S          64.6221   84.4491   14.0756 S.3     1  UNL1       -0.1309
     30 C          60.9856   85.7978   10.4151 C.3     1  UNL1        0.1587
     31 C          60.4868   87.2059   10.5510 C.2     1  UNL1        0.2423
     32 O          60.1407   87.7517   11.9046 O.2     1  UNL1       -0.2733
     33 N          60.3341   88.0682    9.3332 N.am    1  UNL1       -0.2740
     34 C          59.8353   89.4763    9.4690 C.3     1  UNL1        0.1196
     35 C          59.6825   90.3387    8.2512 C.2     1  UNL1       -0.0089
     36 C          60.0286   89.7930    6.8975 C.2     1  UNL1       -0.0231
     37 C          60.5274   88.3849    6.7617 C.3     1  UNL1        0.0476
     38 C          60.6801   87.5225    7.9795 C.3     1  UNL1        0.0984
     39 C          59.8759   90.6553    5.6797 C.ar    1  UNL1       -0.0042
     40 C          61.0813   91.0273    4.8682 C.ar    1  UNL1       -0.0002
     41 C          60.9285   91.8897    3.6504 C.ar    1  UNL1        0.0030
     42 C          59.5704   92.3799    3.2441 C.ar    1  UNL1        0.0358
     43 C          58.3650   92.0079    4.0556 C.ar    1  UNL1        0.0030
     44 C          58.5177   91.1455    5.2734 C.ar    1  UNL1       -0.0002
     45 C          59.4177   93.2422    2.0263 C.ar    1  UNL1        0.1623
     46 N          58.7392   92.6997    0.8034 N.ar    1  UNL1       -0.2250
     47 C          58.5865   93.5620   -0.4145 C.ar    1  UNL1        0.1022
     48 C          59.1122   94.9669   -0.4094 C.ar    1  UNL1        0.0414
     49 C          59.7906   95.5094    0.8135 C.ar    1  UNL1        0.1022
     50 N          59.9433   94.6471    2.0313 N.ar    1  UNL1       -0.2250
@<TRIPOS>BOND
     1    28    29    1
     2     1    29    1
     3     1     6    1
     4     6     7    2
     5     6     8   am
     6     8    10    1
     7    10    11    2
     8    11    12    1
     9    12    13    2
    10    13    14    1
    11    14    15    2
    12    15    16    1
    13    16    19    1
    14    19    20   ar
    15    20    21   ar
    16    21    22   ar
    17    22    23   ar
    18    23    24   ar
    19    23    25    1
    20    25    26    1
    21    26    27    1
    22    16    17    2
    23    17    18    1
    24     1     2    1
    25     2     3    1
    26     3     4    1
    27     4    30    1
    28    30    31    1
    29    31    32    2
    30    31    33   am
    31    33    34    1
    32    34    35    1
    33    35    36    2
    34    36    39    1
    35    39    40   ar
    36    40    41   ar
    37    41    42   ar
    38    42    45    1
    39    45    46   ar
    40    46    47   ar
    41    47    48   ar
    42    48    49   ar
    43    49    50   ar
    44    42    43   ar
    45    43    44   ar
    46    36    37    1
    47    37    38    1
    48     4     5    1
    49     5     1    1
    50    18    10    1
    51    38    33    1
    52    17    13    1
    53    44    39   ar
    54    24    19   ar
    55    50    45   ar
    56    27    22    1
    57     8     9    1
@<TRIPOS>MOLECULE
*****
 50 57 0 0 0
SMALL
GASTEIGER

@<TRIPOS>ATOM
      1 C          65.0233   92.4857   11.8773 C.3     1  UNL1        0.1239
      2 C          66.1208   93.5064   11.8194 C.3     1  UNL1        0.0374
      3 C          66.5745   93.7793   13.2228 C.3     1  UNL1        0.0739
      4 N          65.7574   92.9272   14.1480 N.3     1  UNL1       -0.2638
      5 C          64.7986   92.1277   13.3165 C.3     1  UNL1        0.0913
      6 C          63.9246   91.4965   11.6232 C.2     1  UNL1        0.2357
      7 O          63.0244   91.0708   12.7450 O.2     1  UNL1       -0.2739
      8 N          63.7261   90.9330   10.2473 N.am    1  UNL1       -0.2864
      9 H          64.3169   91.2124    9.5110 H       1  UNL1        0.1546
     10 C          62.6274   89.9438    9.9932 C.2     1  UNL1        0.0320
     11 C          62.4461   88.7719   10.9117 C.2     1  UNL1        0.0122
     12 C          61.3475   87.7828   10.6576 C.2     1  UNL1        0.0216
     13 C          60.4301   87.9656    9.4850 C.2     1  UNL1        0.1008
     14 N          59.2671   87.1607    8.9854 N.2     1  UNL1       -0.1483
     15 N          58.7297   87.8351    7.7581 N.2     1  UNL1       -0.1483
     16 C          59.5605   89.0569    7.4992 C.2     1  UNL1        0.1008
     17 C          60.6114   89.1375    8.5665 C.2     1  UNL1        0.0223
     18 C          61.7101   90.1266    8.8206 C.3     1  UNL1        0.0706
     19 C          59.3733   90.0276    6.3711 C.ar    1  UNL1        0.0224
     20 C          57.9994   90.5211    6.0265 C.ar    1  UNL1        0.0049
     21 C          57.8122   91.4918    4.8984 C.ar    1  UNL1        0.0402
     22 C          58.9989   91.9691    4.1148 C.ar    1  UNL1        0.1764
     23 C          60.3728   91.4756    4.4595 C.ar    1  UNL1        0.1765
     24 C          60.5600   90.5049    5.5876 C.ar    1  UNL1        0.0417
     25 O          61.3462   92.1182    3.5163 O.3     1  UNL1       -0.4346
     26 C          60.5739   93.0088    2.5888 C.3     1  UNL1        0.4294
     27 O          59.1231   92.9166    2.9587 O.3     1  UNL1       -0.4346
     28 C          66.0420   93.5049    9.7156 C.3     1  UNL1        0.0696
     29 S          65.0182   92.6368   10.3849 S.3     1  UNL1       -0.1309
     30 C          65.8778   92.8825   15.6425 C.3     1  UNL1        0.1587
     31 C          64.8725   92.1200   16.4535 C.2     1  UNL1        0.2423
     32 O          64.2121   92.7698   17.6332 O.2     1  UNL1       -0.2733
     33 N          64.5275   90.7075   16.0849 N.am    1  UNL1       -0.2740
     34 C          63.5221   89.9449   16.8959 C.3     1  UNL1        0.1196
     35 C          63.1771   88.5324   16.5273 C.2     1  UNL1       -0.0089
     36 C          63.8374   87.8825   15.3477 C.2     1  UNL1       -0.0231
     37 C          64.8427   88.6450   14.5367 C.3     1  UNL1        0.0476
     38 C          65.1878   90.0575   14.9053 C.3     1  UNL1        0.0984
     39 C          63.4924   86.4700   14.9791 C.ar    1  UNL1       -0.0042
     40 C          63.1052   85.4896   16.0463 C.ar    1  UNL1       -0.0002
     41 C          62.7602   84.0771   15.6777 C.ar    1  UNL1        0.0030
     42 C          62.8024   83.6451   14.2419 C.ar    1  UNL1        0.0358
     43 C          63.1895   84.6255   13.1747 C.ar    1  UNL1        0.0030
     44 C          63.5345   86.0380   13.5433 C.ar    1  UNL1       -0.0002
     45 C          62.4574   82.2326   13.8733 C.ar    1  UNL1        0.1623
     46 N          61.2692   81.5633   14.4980 N.ar    1  UNL1       -0.2250
     47 C          60.9241   80.1508   14.1294 C.ar    1  UNL1        0.1022
     48 C          61.7673   79.4076   13.1361 C.ar    1  UNL1        0.0414
     49 C          62.9555   80.0769   12.5114 C.ar    1  UNL1        0.1022
     50 N          63.3005   81.4893   12.8800 N.ar    1  UNL1       -0.2250
@<TRIPOS>BOND
     1    28    29    1
     2     1    29    1
     3     1     6    1
     4     6     7    2
     5     6     8   am
     6     8    10    1
     7    10    11    2
     8    11    12    1
     9    12    13    2
    10    13    14    1
    11    14    15    2
    12    15    16    1
    13    16    19    1
    14    19    20   ar
    15    20    21   ar
    16    21    22   ar
    17    22    23   ar
    18    23    24   ar
    19    23    25    1
    20    25    26    1
    21    26    27    1
    22    16    17    2
    23    17    18    1
    24     1     2    1
    25     2     3    1
    26     3     4    1
    27     4    30    1
    28    30    31    1
    29    31    32    2
    30    31    33   am
    31    33    34    1
    32    34    35    1
    33    35    36    2
    34    36    39    1
    35    39    40   ar
    36    40    41   ar
    37    41    42   ar
    38    42    45    1
    39    45    46   ar
    40    46    47   ar
    41    47    48   ar
    42    48    49   ar
    43    49    50   ar
    44    42    43   ar
    45    43    44   ar
    46    36    37    1
    47    37    38    1
    48     4     5    1
    49     5     1    1
    50    18    10    1
    51    38    33    1
    52    17    13    1
    53    44    39   ar
    54    24    19   ar
    55    50    45   ar
    56    27    22    1
    57     8     9    1
@<TRIPOS>MOLECULE
*****
 50 57 0 0 0
SMALL
GASTEIGER

@<TRIPOS>ATOM
      1 C          60.0277   88.8005    8.7170 C.3     1  UNL1        0.1239
      2 C          59.2072   87.8614    7.8834 C.3     1  UNL1        0.0374
      3 C          58.8922   88.5471    6.5870 C.3     1  UNL1        0.0739
      4 N          59.5179   89.9099    6.6195 N.3     1  UNL1       -0.2638
      5 C          60.2197   90.0665    7.9358 C.3     1  UNL1        0.0913
      6 C          60.8438   89.5058    9.7595 C.2     1  UNL1        0.2357
      7 O          60.1866   90.0168   11.0073 O.2     1  UNL1       -0.2739
      8 N          62.3169   89.6999    9.5542 N.am    1  UNL1       -0.2864
      9 H          62.7482   89.3645    8.7352 H       1  UNL1        0.1546
     10 C          63.1329   90.4052   10.5967 C.2     1  UNL1        0.0320
     11 C          63.7879   91.7160   10.2764 C.2     1  UNL1        0.0122
     12 C          64.6039   92.4212   11.3189 C.2     1  UNL1        0.0216
     13 C          64.7649   91.8155   12.6817 C.2     1  UNL1        0.1008
     14 N          65.5038   92.2753   13.9035 N.2     1  UNL1       -0.1483
     15 N          65.3055   91.2486   14.9789 N.2     1  UNL1       -0.1483
     16 C          64.4440   90.1543   14.4217 C.2     1  UNL1        0.1008
     17 C          64.1099   90.5047   13.0020 C.2     1  UNL1        0.0223
     18 C          63.2939   89.7995   11.9595 C.3     1  UNL1        0.0706
     19 C          63.9953   88.9254   15.1555 C.ar    1  UNL1        0.0224
     20 C          63.2580   89.0551   16.4552 C.ar    1  UNL1        0.0049
     21 C          62.8093   87.8261   17.1890 C.ar    1  UNL1        0.0402
     22 C          63.0980   86.4674   16.6230 C.ar    1  UNL1        0.1764
     23 C          63.8354   86.3376   15.3232 C.ar    1  UNL1        0.1765
     24 C          64.2840   87.5666   14.5895 C.ar    1  UNL1        0.0417
     25 O          63.9754   84.8766   15.0136 O.3     1  UNL1       -0.4346
     26 C          63.3246   84.1035   16.1221 C.3     1  UNL1        0.4294
     27 O          62.7824   85.0866   17.1167 O.3     1  UNL1       -0.4346
     28 C          60.7541   86.4121    9.4364 C.3     1  UNL1        0.0696
     29 S          60.0063   87.6819    9.7161 S.3     1  UNL1       -0.1309
     30 C          59.4532   90.9359    5.5272 C.3     1  UNL1        0.1587
     31 C          60.6876   91.2804    4.7477 C.2     1  UNL1        0.2423
     32 O          62.0428   91.0057    5.3291 O.2     1  UNL1       -0.2733
     33 N          60.5669   91.8996    3.3868 N.am    1  UNL1       -0.2740
     34 C          61.8013   92.2441    2.6073 C.3     1  UNL1        0.1196
     35 C          61.6805   92.8633    1.2464 C.2     1  UNL1       -0.0089
     36 C          60.3254   93.1380    0.6650 C.2     1  UNL1       -0.0231
     37 C          59.0910   92.7935    1.4445 C.3     1  UNL1        0.0476
     38 C          59.2117   92.1743    2.8054 C.3     1  UNL1        0.0984
     39 C          60.2046   93.7572   -0.6959 C.ar    1  UNL1       -0.0042
     40 C          61.2765   93.5311   -1.7206 C.ar    1  UNL1       -0.0002
     41 C          61.1557   94.1503   -3.0814 C.ar    1  UNL1        0.0030
     42 C          59.9630   94.9956   -3.4176 C.ar    1  UNL1        0.0358
     43 C          58.8911   95.2217   -2.3929 C.ar    1  UNL1        0.0030
     44 C          59.0119   94.6025   -1.0321 C.ar    1  UNL1       -0.0002
     45 C          59.8422   95.6148   -4.7785 C.ar    1  UNL1        0.1623
     46 N          58.5365   96.2063   -5.2201 N.ar    1  UNL1       -0.2250
     47 C          58.4156   96.8256   -6.5811 C.ar    1  UNL1        0.1022
     48 C          59.6006   96.8532   -7.5003 C.ar    1  UNL1        0.0414
     49 C          60.9064   96.2617   -7.0587 C.ar    1  UNL1        0.1022
     50 N          61.0272   95.6425   -5.6978 N.ar    1  UNL1       -0.2250
@<TRIPOS>BOND
     1    28    29    1
     2     1    29    1
     3     1     6    1
     4     6     7    2
     5     6     8   am
     6     8    10    1
     7    10    11    2
     8    11    12    1
     9    12    13    2
    10    13    14    1
    11    14    15    2
    12    15    16    1
    13    16    19    1
    14    19    20   ar
    15    20    21   ar
    16    21    22   ar
    17    22    23   ar
    18    23    24   ar
    19    23    25    1
    20    25    26    1
    21    26    27    1
    22    16    17    2
    23    17    18    1
    24     1     2    1
    25     2     3    1
    26     3     4    1
    27     4    30    1
    28    30    31    1
    29    31    32    2
    30    31    33   am
    31    33    34    1
    32    34    35    1
    33    35    36    2
    34    36    39    1
    35    39    40   ar
    36    40    41   ar
    37    41    42   ar
    38    42    45    1
    39    45    46   ar
    40    46    47   ar
    41    47    48   ar
    42    48    49   ar
    43    49    50   ar
    44    42    43   ar
    45    43    44   ar
    46    36    37    1
    47    37    38    1
    48     4     5    1
    49     5     1    1
    50    18    10    1
    51    38    33    1
    52    17    13    1
    53    44    39   ar
    54    24    19   ar
    55    50    45   ar
    56    27    22    1
    57     8     9    1
@<TRIPOS>MOLECULE
*****
 50 57 0 0 0
SMALL
GASTEIGER

@<TRIPOS>ATOM
      1 C          61.3508   92.7557    1.9972 C.3     1  UNL1        0.1239
      2 C          62.2116   91.9778    2.9480 C.3     1  UNL1        0.0374
      3 C          61.4113   91.7158    4.1893 C.3     1  UNL1        0.0739
      4 N          60.0559   92.3317    4.0056 N.3     1  UNL1       -0.2638
      5 C          60.0186   92.9743    2.6508 C.3     1  UNL1        0.0913
      6 C          60.7420   93.5213    0.8599 C.2     1  UNL1        0.2357
      7 O          59.6902   94.5560    1.1304 O.2     1  UNL1       -0.2739
      8 N          61.1850   93.2522   -0.5476 N.am    1  UNL1       -0.2864
      9 H          61.8753   92.5730   -0.7251 H       1  UNL1        0.1546
     10 C          60.5762   94.0178   -1.6849 C.2     1  UNL1        0.0320
     11 C          61.1394   95.3513   -2.0779 C.2     1  UNL1        0.0122
     12 C          60.5306   96.1168   -3.2151 C.2     1  UNL1        0.0216
     13 C          59.3586   95.5489   -3.9593 C.2     1  UNL1        0.1008
     14 N          58.5547   96.0695   -5.1138 N.2     1  UNL1       -0.1483
     15 N          57.4948   95.0577   -5.4343 N.2     1  UNL1       -0.1483
     16 C          57.6435   93.9118   -4.4778 C.2     1  UNL1        0.1008
     17 C          58.7953   94.2154   -3.5662 C.2     1  UNL1        0.0223
     18 C          59.4041   93.4498   -2.4291 C.3     1  UNL1        0.0706
     19 C          56.7901   92.6788   -4.4397 C.ar    1  UNL1        0.0224
     20 C          56.6155   91.9270   -3.1536 C.ar    1  UNL1        0.0049
     21 C          55.7622   90.6940   -3.1154 C.ar    1  UNL1        0.0402
     22 C          55.0834   90.2127   -4.3634 C.ar    1  UNL1        0.1764
     23 C          55.2579   90.9646   -5.6496 C.ar    1  UNL1        0.1765
     24 C          56.1113   92.1976   -5.6877 C.ar    1  UNL1        0.0417
     25 O          54.4706   90.2556   -6.7114 O.3     1  UNL1       -0.4346
     26 C          53.8094   89.0657   -6.0815 C.3     1  UNL1        0.4294
     27 O          54.1881   89.0392   -4.6303 O.3     1  UNL1       -0.4346
     28 C          63.9238   92.9221    1.6783 C.3     1  UNL1        0.0696
     29 S          62.5558   92.6971    1.1058 S.3     1  UNL1       -0.1309
     30 C          58.9348   92.3088    5.0018 C.3     1  UNL1        0.1587
     31 C          58.2665   91.0117    5.3493 C.2     1  UNL1        0.2423
     32 O          56.9536   90.6521    4.7194 O.2     1  UNL1       -0.2733
     33 N          58.9112   90.0741    6.3267 N.am    1  UNL1       -0.2740
     34 C          58.2429   88.7769    6.6742 C.3     1  UNL1        0.1196
     35 C          58.8876   87.8393    7.6516 C.2     1  UNL1       -0.0089
     36 C          60.2005   88.1989    8.2816 C.2     1  UNL1       -0.0231
     37 C          60.8688   89.4960    7.9341 C.3     1  UNL1        0.0476
     38 C          60.2241   90.4336    6.9567 C.3     1  UNL1        0.0984
     39 C          60.8452   87.2613    9.2590 C.ar    1  UNL1       -0.0042
     40 C          61.7370   86.1605    8.7659 C.ar    1  UNL1       -0.0002
     41 C          62.3817   85.2230    9.7433 C.ar    1  UNL1        0.0030
     42 C          62.1345   85.3861   11.2138 C.ar    1  UNL1        0.0358
     43 C          61.2428   86.4869   11.7068 C.ar    1  UNL1        0.0030
     44 C          60.5981   87.4245   10.7294 C.ar    1  UNL1       -0.0002
     45 C          62.7792   84.4486   12.1912 C.ar    1  UNL1        0.1623
     46 N          62.6534   84.6984   13.6649 N.ar    1  UNL1       -0.2250
     47 C          63.2981   83.7608   14.6424 C.ar    1  UNL1        0.1022
     48 C          64.0686   82.5734   14.1461 C.ar    1  UNL1        0.0414
     49 C          64.1944   82.3236   12.6724 C.ar    1  UNL1        0.1022
     50 N          63.5497   83.2611   11.6950 N.ar    1  UNL1       -0.2250
@<TRIPOS>BOND
     1    28    29    1
     2     1    29    1
     3     1     6    1
     4     6     7    2
     5     6     8   am
     6     8    10    1
     7    10    11    2
     8    11    12    1
     9    12    13    2
    10    13    14    1
    11    14    15    2
    12    15    16    1
    13    16    19    1
    14    19    20   ar
    15    20    21   ar
    16    21    22   ar
    17    22    23   ar
    18    23    24   ar
    19    23    25    1
    20    25    26    1
    21    26    27    1
    22    16    17    2
    23    17    18    1
    24     1     2    1
    25     2     3    1
    26     3     4    1
    27     4    30    1
    28    30    31    1
    29    31    32    2
    30    31    33   am
    31    33    34    1
    32    34    35    1
    33    35    36    2
    34    36    39    1
    35    39    40   ar
    36    40    41   ar
    37    41    42   ar
    38    42    45    1
    39    45    46   ar
    40    46    47   ar
    41    47    48   ar
    42    48    49   ar
    43    49    50   ar
    44    42    43   ar
    45    43    44   ar
    46    36    37    1
    47    37    38    1
    48     4     5    1
    49     5     1    1
    50    18    10    1
    51    38    33    1
    52    17    13    1
    53    44    39   ar
    54    24    19   ar
    55    50    45   ar
    56    27    22    1
    57     8     9    1
@<TRIPOS>MOLECULE
*****
 50 57 0 0 0
SMALL
GASTEIGER

@<TRIPOS>ATOM
      1 C          60.7617   92.6752    1.8323 C.3     1  UNL1        0.1239
      2 C          61.8684   92.2410    2.7470 C.3     1  UNL1        0.0374
      3 C          61.2813   92.0103    4.1079 C.3     1  UNL1        0.0739
      4 N          59.8118   92.3019    4.0342 N.3     1  UNL1       -0.2638
      5 C          59.4906   92.7128    2.6279 C.3     1  UNL1        0.0913
      6 C          59.8822   93.1210    0.7018 C.2     1  UNL1        0.2357
      7 O          59.5914   94.5798    0.5082 O.2     1  UNL1       -0.2739
      8 N          59.2937   92.1081   -0.2350 N.am    1  UNL1       -0.2864
      9 H          59.4846   91.1507   -0.1079 H       1  UNL1        0.1546
     10 C          58.4142   92.5539   -1.3654 C.2     1  UNL1        0.0320
     11 C          56.9253   92.4059   -1.2607 C.2     1  UNL1        0.0122
     12 C          56.0459   92.8517   -2.3911 C.2     1  UNL1        0.0216
     13 C          56.6556   93.4456   -3.6263 C.2     1  UNL1        0.1008
     14 N          56.0472   93.9707   -4.8930 N.2     1  UNL1       -0.1483
     15 N          57.1603   94.4432   -5.7805 N.2     1  UNL1       -0.1483
     16 C          58.4565   94.2101   -5.0624 C.2     1  UNL1        0.1008
     17 C          58.1445   93.5936   -3.7311 C.2     1  UNL1        0.0223
     18 C          59.0239   93.1477   -2.6007 C.3     1  UNL1        0.0706
     19 C          59.8245   94.5364   -5.5841 C.ar    1  UNL1        0.0224
     20 C          60.0174   94.8514   -7.0379 C.ar    1  UNL1        0.0049
     21 C          61.3854   95.1776   -7.5596 C.ar    1  UNL1        0.0402
     22 C          62.5606   95.1888   -6.6274 C.ar    1  UNL1        0.1764
     23 C          62.3676   94.8738   -5.1737 C.ar    1  UNL1        0.1765
     24 C          60.9997   94.5476   -4.6520 C.ar    1  UNL1        0.0417
     25 O          63.7045   94.9617   -4.4990 O.3     1  UNL1       -0.4346
     26 C          64.7235   95.3311   -5.5358 C.3     1  UNL1        0.4294
     27 O          64.0166   95.4714   -6.8513 O.3     1  UNL1       -0.4346
     28 C          62.9900   93.6904    0.9641 C.3     1  UNL1        0.0696
     29 S          61.8488   92.7308    0.8003 S.3     1  UNL1       -0.1309
     30 C          58.8349   92.2004    5.1680 C.3     1  UNL1        0.1587
     31 C          58.1997   90.8815    5.4949 C.2     1  UNL1        0.2423
     32 O          56.8821   90.5110    4.8813 O.2     1  UNL1       -0.2733
     33 N          58.8821   89.9329    6.4354 N.am    1  UNL1       -0.2740
     34 C          58.2469   88.6140    6.7623 C.3     1  UNL1        0.1196
     35 C          58.9294   87.6654    7.7028 C.2     1  UNL1       -0.0089
     36 C          60.2470   88.0358    8.3164 C.2     1  UNL1       -0.0231
     37 C          60.8822   89.3547    7.9895 C.3     1  UNL1        0.0476
     38 C          60.1998   90.3033    7.0490 C.3     1  UNL1        0.0984
     39 C          60.9294   87.0872    9.2569 C.ar    1  UNL1       -0.0042
     40 C          60.7187   87.2165   10.7364 C.ar    1  UNL1       -0.0002
     41 C          61.4011   86.2679   11.6769 C.ar    1  UNL1        0.0030
     42 C          62.2943   85.1901   11.1379 C.ar    1  UNL1        0.0358
     43 C          62.5051   85.0609    9.6584 C.ar    1  UNL1        0.0030
     44 C          61.8227   86.0094    8.7179 C.ar    1  UNL1       -0.0002
     45 C          62.9767   84.2416   12.0784 C.ar    1  UNL1        0.1623
     46 N          63.5034   84.7374   13.3925 N.ar    1  UNL1       -0.2250
     47 C          64.1859   83.7889   14.3331 C.ar    1  UNL1        0.1022
     48 C          64.3417   82.3445   13.9595 C.ar    1  UNL1        0.0414
     49 C          63.8149   81.8487   12.6454 C.ar    1  UNL1        0.1022
     50 N          63.1325   82.7973   11.7049 N.ar    1  UNL1       -0.2250
@<TRIPOS>BOND
     1    28    29    1
     2     1    29    1
     3     1     6    1
     4     6     7    2
     5     6     8   am
     6     8    10    1
     7    10    11    2
     8    11    12    1
     9    12    13    2
    10    13    14    1
    11    14    15    2
    12    15    16    1
    13    16    19    1
    14    19    20   ar
    15    20    21   ar
    16    21    22   ar
    17    22    23   ar
    18    23    24   ar
    19    23    25    1
    20    25    26    1
    21    26    27    1
    22    16    17    2
    23    17    18    1
    24     1     2    1
    25     2     3    1
    26     3     4    1
    27     4    30    1
    28    30    31    1
    29    31    32    2
    30    31    33   am
    31    33    34    1
    32    34    35    1
    33    35    36    2
    34    36    39    1
    35    39    40   ar
    36    40    41   ar
    37    41    42   ar
    38    42    45    1
    39    45    46   ar
    40    46    47   ar
    41    47    48   ar
    42    48    49   ar
    43    49    50   ar
    44    42    43   ar
    45    43    44   ar
    46    36    37    1
    47    37    38    1
    48     4     5    1
    49     5     1    1
    50    18    10    1
    51    38    33    1
    52    17    13    1
    53    44    39   ar
    54    24    19   ar
    55    50    45   ar
    56    27    22    1
    57     8     9    1
@<TRIPOS>MOLECULE
*****
 50 57 0 0 0
SMALL
GASTEIGER

@<TRIPOS>ATOM
      1 C          66.0109   92.5260   11.9003 C.3     1  UNL1        0.1239
      2 C          67.3909   93.0727   12.1167 C.3     1  UNL1        0.0374
      3 C          67.5614   93.3333   13.5840 C.3     1  UNL1        0.0739
      4 N          66.2868   92.9476   14.2744 N.3     1  UNL1       -0.2638
      5 C          65.3286   92.4487   13.2339 C.3     1  UNL1        0.0913
      6 C          64.7170   91.9712   11.3824 C.2     1  UNL1        0.2357
      7 O          64.1566   92.4649   10.0816 O.2     1  UNL1       -0.2739
      8 N          63.9837   90.9229   12.1654 N.am    1  UNL1       -0.2864
      9 H          64.3515   90.5989   13.0192 H       1  UNL1        0.1546
     10 C          62.6898   90.3681   11.6476 C.2     1  UNL1        0.0320
     11 C          61.4555   91.2204   11.6461 C.2     1  UNL1        0.0122
     12 C          60.1617   90.6656   11.1282 C.2     1  UNL1        0.0216
     13 C          60.1022   89.2585   10.6119 C.2     1  UNL1        0.1008
     14 N          58.9776   88.4446   10.0435 N.2     1  UNL1       -0.1483
     15 N          59.5169   87.0894    9.6938 N.2     1  UNL1       -0.1483
     16 C          60.9748   87.0656   10.0460 C.2     1  UNL1        0.1008
     17 C          61.3365   88.4062   10.6134 C.2     1  UNL1        0.0223
     18 C          62.6303   88.9610   11.1312 C.3     1  UNL1        0.0706
     19 C          61.9073   85.9051    9.8629 C.ar    1  UNL1        0.0224
     20 C          62.8090   85.8490    8.6655 C.ar    1  UNL1        0.0049
     21 C          63.7415   84.6885    8.4824 C.ar    1  UNL1        0.0402
     22 C          63.7723   83.5839    9.4968 C.ar    1  UNL1        0.1764
     23 C          62.8707   83.6399   10.6942 C.ar    1  UNL1        0.1765
     24 C          61.9382   84.8005   10.8773 C.ar    1  UNL1        0.0417
     25 O          63.1210   82.4135   11.5207 O.3     1  UNL1       -0.4346
     26 C          64.1774   81.5995   10.8341 C.3     1  UNL1        0.4294
     27 O          64.5799   82.3228    9.5832 O.3     1  UNL1       -0.4346
     28 C          67.8627   92.2761   10.0952 C.3     1  UNL1        0.0696
     29 S          66.4228   92.4873   10.4585 S.3     1  UNL1       -0.1309
     30 C          66.0178   93.0440   15.7469 C.3     1  UNL1        0.1587
     31 C          64.7848   92.4165   16.3267 C.2     1  UNL1        0.2423
     32 O          63.8570   93.2325   17.1771 O.2     1  UNL1       -0.2733
     33 N          64.4797   90.9730   16.0560 N.am    1  UNL1       -0.2740
     34 C          63.2468   90.3455   16.6358 C.3     1  UNL1        0.1196
     35 C          62.9417   88.9021   16.3652 C.2     1  UNL1       -0.0089
     36 C          63.8695   88.0860   15.5148 C.2     1  UNL1       -0.0231
     37 C          65.1024   88.7135   14.9350 C.3     1  UNL1        0.0476
     38 C          65.4075   90.1570   15.2056 C.3     1  UNL1        0.0984
     39 C          63.5644   86.6425   15.2441 C.ar    1  UNL1       -0.0042
     40 C          62.6489   85.8850   16.1596 C.ar    1  UNL1       -0.0002
     41 C          62.3438   84.4415   15.8890 C.ar    1  UNL1        0.0030
     42 C          62.9542   83.7556   14.7029 C.ar    1  UNL1        0.0358
     43 C          63.8697   84.5131   13.7874 C.ar    1  UNL1        0.0030
     44 C          64.1748   85.9566   14.0580 C.ar    1  UNL1       -0.0002
     45 C          62.6491   82.3121   14.4322 C.ar    1  UNL1        0.1623
     46 N          63.7678   81.3232   14.2883 N.ar    1  UNL1       -0.2250
     47 C          63.4628   79.8797   14.0177 C.ar    1  UNL1        0.1022
     48 C          62.0390   79.4250   13.8909 C.ar    1  UNL1        0.0414
     49 C          60.9203   80.4139   14.0348 C.ar    1  UNL1        0.1022
     50 N          61.2254   81.8574   14.3054 N.ar    1  UNL1       -0.2250
@<TRIPOS>BOND
     1    28    29    1
     2     1    29    1
     3     1     6    1
     4     6     7    2
     5     6     8   am
     6     8    10    1
     7    10    11    2
     8    11    12    1
     9    12    13    2
    10    13    14    1
    11    14    15    2
    12    15    16    1
    13    16    19    1
    14    19    20   ar
    15    20    21   ar
    16    21    22   ar
    17    22    23   ar
    18    23    24   ar
    19    23    25    1
    20    25    26    1
    21    26    27    1
    22    16    17    2
    23    17    18    1
    24     1     2    1
    25     2     3    1
    26     3     4    1
    27     4    30    1
    28    30    31    1
    29    31    32    2
    30    31    33   am
    31    33    34    1
    32    34    35    1
    33    35    36    2
    34    36    39    1
    35    39    40   ar
    36    40    41   ar
    37    41    42   ar
    38    42    45    1
    39    45    46   ar
    40    46    47   ar
    41    47    48   ar
    42    48    49   ar
    43    49    50   ar
    44    42    43   ar
    45    43    44   ar
    46    36    37    1
    47    37    38    1
    48     4     5    1
    49     5     1    1
    50    18    10    1
    51    38    33    1
    52    17    13    1
    53    44    39   ar
    54    24    19   ar
    55    50    45   ar
    56    27    22    1
    57     8     9    1
@<TRIPOS>MOLECULE
*****
 50 57 0 0 0
SMALL
GASTEIGER

@<TRIPOS>ATOM
      1 C          60.5605   88.4268    8.6734 C.3     1  UNL1        0.1239
      2 C          59.5668   87.7098    7.8082 C.3     1  UNL1        0.0374
      3 C          58.9140   88.7227    6.9150 C.3     1  UNL1        0.0739
      4 N          59.5043   90.0656    7.2281 N.3     1  UNL1       -0.2638
      5 C          60.5218   89.8828    8.3149 C.3     1  UNL1        0.0913
      6 C          61.6081   88.8582    9.6566 C.2     1  UNL1        0.2357
      7 O          62.2931   87.8391   10.5181 O.2     1  UNL1       -0.2739
      8 N          61.9706   90.3086    9.7781 N.am    1  UNL1       -0.2864
      9 H          61.5209   90.9774    9.2127 H       1  UNL1        0.1546
     10 C          63.0181   90.7400   10.7613 C.2     1  UNL1        0.0320
     11 C          63.8743   91.9363   10.4684 C.2     1  UNL1        0.0122
     12 C          64.9218   92.3677   11.4515 C.2     1  UNL1        0.0216
     13 C          65.1132   91.6028   12.7275 C.2     1  UNL1        0.1008
     14 N          66.0581   91.7893   13.8776 N.2     1  UNL1       -0.1483
     15 N          65.7859   90.7083   14.8812 N.2     1  UNL1       -0.1483
     16 C          64.6727   89.8537   14.3515 C.2     1  UNL1        0.1008
     17 C          64.2570   90.4065   13.0205 C.2     1  UNL1        0.0223
     18 C          63.2095   89.9751   12.0373 C.3     1  UNL1        0.0706
     19 C          64.0795   88.6564   15.0331 C.ar    1  UNL1        0.0224
     20 C          63.3376   88.8206   16.3263 C.ar    1  UNL1        0.0049
     21 C          62.7444   87.6233   17.0079 C.ar    1  UNL1        0.0402
     22 C          62.8930   86.2618   16.3963 C.ar    1  UNL1        0.1764
     23 C          63.6349   86.0976   15.1030 C.ar    1  UNL1        0.1765
     24 C          64.2281   87.2949   14.4214 C.ar    1  UNL1        0.0417
     25 O          63.6200   84.6418   14.7417 O.3     1  UNL1       -0.4346
     26 C          62.8689   83.9064   15.8117 C.3     1  UNL1        0.4294
     27 O          62.4196   84.9076   16.8343 O.3     1  UNL1       -0.4346
     28 C          61.1059   85.9117    8.3176 C.3     1  UNL1        0.0696
     29 S          60.8181   87.0610    9.2375 S.3     1  UNL1       -0.1309
     30 C          59.1407   91.3636    6.5700 C.3     1  UNL1        0.1587
     31 C          58.5088   91.3636    5.2096 C.2     1  UNL1        0.2423
     32 O          57.0944   90.8940    5.0397 O.2     1  UNL1       -0.2733
     33 N          59.2913   91.8331    4.0192 N.am    1  UNL1       -0.2740
     34 C          58.6594   91.8331    2.6588 C.3     1  UNL1        0.1196
     35 C          59.4419   92.3027    1.4683 C.2     1  UNL1       -0.0089
     36 C          60.8563   92.7722    1.6382 C.2     1  UNL1       -0.0231
     37 C          61.4883   92.7722    2.9986 C.3     1  UNL1        0.0476
     38 C          60.7058   92.3027    4.1890 C.3     1  UNL1        0.0984
     39 C          61.6389   93.2418    0.4477 C.ar    1  UNL1       -0.0042
     40 C          63.0876   93.6010    0.5967 C.ar    1  UNL1       -0.0002
     41 C          63.8701   94.0706   -0.5938 C.ar    1  UNL1        0.0030
     42 C          63.2039   94.1809   -1.9332 C.ar    1  UNL1        0.0358
     43 C          61.7552   93.8216   -2.0821 C.ar    1  UNL1        0.0030
     44 C          60.9727   93.3520   -0.8917 C.ar    1  UNL1       -0.0002
     45 C          63.9864   94.6504   -3.1236 C.ar    1  UNL1        0.1623
     46 N          63.9791   93.8470   -4.3903 N.ar    1  UNL1       -0.2250
     47 C          64.7617   94.3165   -5.5809 C.ar    1  UNL1        0.1022
     48 C          65.5514   95.5895   -5.5046 C.ar    1  UNL1        0.0414
     49 C          65.5587   96.3929   -4.2379 C.ar    1  UNL1        0.1022
     50 N          64.7762   95.9233   -3.0475 N.ar    1  UNL1       -0.2250
@<TRIPOS>BOND
     1    28    29    1
     2     1    29    1
     3     1     6    1
     4     6     7    2
     5     6     8   am
     6     8    10    1
     7    10    11    2
     8    11    12    1
     9    12    13    2
    10    13    14    1
    11    14    15    2
    12    15    16    1
    13    16    19    1
    14    19    20   ar
    15    20    21   ar
    16    21    22   ar
    17    22    23   ar
    18    23    24   ar
    19    23    25    1
    20    25    26    1
    21    26    27    1
    22    16    17    2
    23    17    18    1
    24     1     2    1
    25     2     3    1
    26     3     4    1
    27     4    30    1
    28    30    31    1
    29    31    32    2
    30    31    33   am
    31    33    34    1
    32    34    35    1
    33    35    36    2
    34    36    39    1
    35    39    40   ar
    36    40    41   ar
    37    41    42   ar
    38    42    45    1
    39    45    46   ar
    40    46    47   ar
    41    47    48   ar
    42    48    49   ar
    43    49    50   ar
    44    42    43   ar
    45    43    44   ar
    46    36    37    1
    47    37    38    1
    48     4     5    1
    49     5     1    1
    50    18    10    1
    51    38    33    1
    52    17    13    1
    53    44    39   ar
    54    24    19   ar
    55    50    45   ar
    56    27    22    1
    57     8     9    1
