@<TRIPOS>MOLECULE
*****
 28 31 0 0 0
SMALL
GASTEIGER

@<TRIPOS>ATOM
      1 C          65.0364   92.1363   13.4292 C.ar    1  UNL1        0.1721
      2 C          64.1367   91.6165   12.3474 C.ar    1  UNL1        0.0356
      3 C          63.7512   90.1671   12.3245 C.ar    1  UNL1       -0.0203
      4 C          64.2654   89.2375   13.3835 C.ar    1  UNL1       -0.0084
      5 C          65.1650   89.7573   14.4653 C.ar    1  UNL1        0.0368
      6 C          65.5505   91.2067   14.4882 C.ar    1  UNL1        0.1721
      7 C          63.8799   87.7880   13.3606 C.3     1  UNL1        0.0812
      8 C          64.3940   86.8584   14.4196 C.3     1  UNL1        0.0363
      9 C          64.0085   85.4090   14.3967 C.3     1  UNL1        0.0579
     10 N          64.5227   84.4793   15.4557 N.3     1  UNL1       -0.3219
     11 C          63.1089   84.8891   13.3149 C.3     1  UNL1        0.0525
     12 C          62.5948   85.8188   12.2559 C.3     1  UNL1        0.0780
     13 N          62.9803   87.2682   12.2788 N.3     1  UNL1       -0.2696
     14 C          62.4661   88.1978   11.2198 C.3     1  UNL1        0.0770
     15 C          62.8515   89.6473   11.2426 C.3     1  UNL1        0.0435
     16 H          65.1150   84.9975   16.1047 H       1  UNL1        0.1188
     17 H          65.0666   83.7347   15.0196 H       1  UNL1        0.1188
     18 C          62.7234   83.4397   13.2920 C.ar    1  UNL1       -0.0202
     19 C          62.0082   82.8353   14.4638 C.ar    1  UNL1       -0.0042
     20 C          61.6227   81.3858   14.4409 C.ar    1  UNL1       -0.0006
     21 C          61.9524   80.5408   13.2463 C.ar    1  UNL1       -0.0043
     22 C          62.6676   81.1453   12.0745 C.ar    1  UNL1       -0.0222
     23 C          62.9974   80.3003   10.8797 C.3     1  UNL1        0.0310
     24 C          63.0531   82.5947   12.0974 C.ar    1  UNL1       -0.0084
     25 C          66.2066   94.1712   12.3157 C.3     1  UNL1        0.2526
     26 O          65.4219   93.5858   13.4521 O.3     1  UNL1       -0.4684
     27 O          66.4502   91.7265   15.5701 O.3     1  UNL1       -0.4684
     28 C          67.9109   91.9309   15.2971 C.3     1  UNL1        0.2526
@<TRIPOS>BOND
     1    25    26    1
     2    26     1    1
     3     1     2   ar
     4     2     3   ar
     5     3     4   ar
     6     4     5   ar
     7     5     6   ar
     8     6    27    1
     9    27    28    1
    10     4     7    1
    11     7     8    1
    12     8     9    1
    13     9    10    1
    14     9    11    1
    15    11    18    1
    16    18    19   ar
    17    19    20   ar
    18    20    21   ar
    19    21    22   ar
    20    22    23    1
    21    22    24   ar
    22    11    12    1
    23    12    13    1
    24    13    14    1
    25    14    15    1
    26     6     1   ar
    27    13     7    1
    28    15     3    1
    29    24    18   ar
    30    10    16    1
    31    10    17    1
@<TRIPOS>MOLECULE
*****
 28 31 0 0 0
SMALL
GASTEIGER

@<TRIPOS>ATOM
      1 C          66.6097   92.9934   14.9193 C.ar    1  UNL1        0.1721
      2 C          66.2014   91.6195   15.3615 C.ar    1  UNL1        0.0356
      3 C          65.3313   90.7750   14.4784 C.ar    1  UNL1       -0.0203
      4 C          64.8696   91.3045   13.1531 C.ar    1  UNL1       -0.0084
      5 C          65.2779   92.6784   12.7109 C.ar    1  UNL1        0.0368
      6 C          66.1480   93.5229   13.5940 C.ar    1  UNL1        0.1721
      7 C          63.9995   90.4600   12.2700 C.3     1  UNL1        0.0812
      8 C          63.5378   90.9895   10.9447 C.3     1  UNL1        0.0363
      9 C          62.6677   90.1450   10.0616 C.3     1  UNL1        0.0579
     10 N          62.2060   90.6746    8.7363 N.3     1  UNL1       -0.3219
     11 C          62.2594   88.7711   10.5038 C.3     1  UNL1        0.0525
     12 C          62.7211   88.2417   11.8291 C.3     1  UNL1        0.0780
     13 N          63.5912   89.0861   12.7122 N.3     1  UNL1       -0.2696
     14 C          64.0529   88.5566   14.0375 C.3     1  UNL1        0.0770
     15 C          64.9230   89.4011   14.9206 C.3     1  UNL1        0.0435
     16 H          62.5745   91.6157    8.5991 H       1  UNL1        0.1188
     17 H          61.1865   90.7026    8.7178 H       1  UNL1        0.1188
     18 C          61.3893   87.9267    9.6207 C.ar    1  UNL1       -0.0202
     19 C          59.9104   88.1720    9.5693 C.ar    1  UNL1       -0.0042
     20 C          59.0404   87.3275    8.6862 C.ar    1  UNL1       -0.0006
     21 C          59.6492   86.2377    7.8545 C.ar    1  UNL1       -0.0043
     22 C          61.1281   85.9924    7.9059 C.ar    1  UNL1       -0.0222
     23 C          61.7369   84.9026    7.0742 C.3     1  UNL1        0.0310
     24 C          61.9981   86.8369    8.7890 C.ar    1  UNL1       -0.0084
     25 C          68.9684   93.6548   15.7847 C.3     1  UNL1        0.2526
     26 O          67.4798   93.8379   15.8024 O.3     1  UNL1       -0.4684
     27 O          66.5563   94.8968   13.1518 O.3     1  UNL1       -0.4684
     28 C          66.2969   95.3390   11.7421 C.3     1  UNL1        0.2526
@<TRIPOS>BOND
     1    25    26    1
     2    26     1    1
     3     1     2   ar
     4     2     3   ar
     5     3     4   ar
     6     4     5   ar
     7     5     6   ar
     8     6    27    1
     9    27    28    1
    10     4     7    1
    11     7     8    1
    12     8     9    1
    13     9    10    1
    14     9    11    1
    15    11    18    1
    16    18    19   ar
    17    19    20   ar
    18    20    21   ar
    19    21    22   ar
    20    22    23    1
    21    22    24   ar
    22    11    12    1
    23    12    13    1
    24    13    14    1
    25    14    15    1
    26     6     1   ar
    27    13     7    1
    28    15     3    1
    29    24    18   ar
    30    10    16    1
    31    10    17    1
@<TRIPOS>MOLECULE
*****
 28 31 0 0 0
SMALL
GASTEIGER

@<TRIPOS>ATOM
      1 C          64.4482   91.0768   15.7064 C.ar    1  UNL1        0.1721
      2 C          63.7715   90.2573   16.7649 C.ar    1  UNL1        0.0356
      3 C          63.4579   88.8130   16.5090 C.ar    1  UNL1       -0.0203
      4 C          63.8209   88.1881   15.1946 C.ar    1  UNL1       -0.0084
      5 C          64.4976   89.0077   14.1361 C.ar    1  UNL1        0.0368
      6 C          64.8112   90.4520   14.3920 C.ar    1  UNL1        0.1721
      7 C          63.5073   86.7438   14.9386 C.3     1  UNL1        0.0812
      8 C          63.8703   86.1190   13.6242 C.3     1  UNL1        0.0363
      9 C          63.5567   84.6746   13.3683 C.3     1  UNL1        0.0579
     10 N          63.9197   84.0498   12.0538 N.3     1  UNL1       -0.3219
     11 C          62.8800   83.8551   14.4268 C.3     1  UNL1        0.0525
     12 C          62.5170   84.4799   15.7412 C.3     1  UNL1        0.0780
     13 N          62.8306   85.9243   15.9971 N.3     1  UNL1       -0.2696
     14 C          62.4676   86.5491   17.3117 C.3     1  UNL1        0.0770
     15 C          62.7812   87.9935   17.5676 C.3     1  UNL1        0.0435
     16 H          64.3686   84.7461   11.4588 H       1  UNL1        0.1188
     17 H          63.0756   83.7051   11.5965 H       1  UNL1        0.1188
     18 C          62.5664   82.4108   14.1709 C.ar    1  UNL1       -0.0202
     19 C          63.6567   81.4691   13.7534 C.ar    1  UNL1       -0.0042
     20 C          63.3430   80.0247   13.4975 C.ar    1  UNL1       -0.0006
     21 C          61.9391   79.5221   13.6591 C.ar    1  UNL1       -0.0043
     22 C          60.8487   80.4638   14.0765 C.ar    1  UNL1       -0.0222
     23 C          59.4447   79.9611   14.2381 C.3     1  UNL1        0.0310
     24 C          61.1624   81.9081   14.3325 C.ar    1  UNL1       -0.0084
     25 C          66.1889   92.9737   16.0557 C.3     1  UNL1        0.2526
     26 O          64.7619   92.5212   15.9623 O.3     1  UNL1       -0.4684
     27 O          65.4879   91.2715   13.3334 O.3     1  UNL1       -0.4684
     28 C          64.6731   91.9327   12.2616 C.3     1  UNL1        0.2526
@<TRIPOS>BOND
     1    25    26    1
     2    26     1    1
     3     1     2   ar
     4     2     3   ar
     5     3     4   ar
     6     4     5   ar
     7     5     6   ar
     8     6    27    1
     9    27    28    1
    10     4     7    1
    11     7     8    1
    12     8     9    1
    13     9    10    1
    14     9    11    1
    15    11    18    1
    16    18    19   ar
    17    19    20   ar
    18    20    21   ar
    19    21    22   ar
    20    22    23    1
    21    22    24   ar
    22    11    12    1
    23    12    13    1
    24    13    14    1
    25    14    15    1
    26     6     1   ar
    27    13     7    1
    28    15     3    1
    29    24    18   ar
    30    10    16    1
    31    10    17    1
@<TRIPOS>MOLECULE
*****
 28 31 0 0 0
SMALL
GASTEIGER

@<TRIPOS>ATOM
      1 C          60.6404   86.0631    8.4579 C.ar    1  UNL1        0.1721
      2 C          61.2853   85.3899    9.6331 C.ar    1  UNL1        0.0356
      3 C          61.9992   86.2086   10.6676 C.ar    1  UNL1       -0.0203
      4 C          62.0684   87.7003   10.5268 C.ar    1  UNL1       -0.0084
      5 C          61.4236   88.3734    9.3517 C.ar    1  UNL1        0.0368
      6 C          60.7096   87.5548    8.3172 C.ar    1  UNL1        0.1721
      7 C          62.7824   88.5189   11.5613 C.3     1  UNL1        0.0812
      8 C          62.8515   90.0107   11.4206 C.3     1  UNL1        0.0363
      9 C          63.5655   90.8293   12.4550 C.3     1  UNL1        0.0579
     10 N          63.6346   92.3212   12.3142 N.3     1  UNL1       -0.3219
     11 C          64.2103   90.1562   13.6302 C.3     1  UNL1        0.0525
     12 C          64.1411   88.6645   13.7709 C.3     1  UNL1        0.0780
     13 N          63.4272   87.8458   12.7365 N.3     1  UNL1       -0.2696
     14 C          63.3580   86.3540   12.8772 C.3     1  UNL1        0.0770
     15 C          62.6441   85.5354   11.8428 C.3     1  UNL1        0.0435
     16 H          63.1473   92.6054   11.4645 H       1  UNL1        0.1188
     17 H          64.6106   92.6127   12.2602 H       1  UNL1        0.1188
     18 C          64.9243   90.9748   14.6646 C.ar    1  UNL1       -0.0202
     19 C          64.1929   91.4401   15.8888 C.ar    1  UNL1       -0.0042
     20 C          64.9068   92.2588   16.9232 C.ar    1  UNL1       -0.0006
     21 C          66.3522   92.6121   16.7335 C.ar    1  UNL1       -0.0043
     22 C          67.0836   92.1468   15.5094 C.ar    1  UNL1       -0.0222
     23 C          68.5291   92.5002   15.3197 C.3     1  UNL1        0.0310
     24 C          66.3696   91.3282   14.4750 C.ar    1  UNL1       -0.0084
     25 C          60.7082   84.5348    6.3580 C.3     1  UNL1        0.2526
     26 O          59.9265   85.2444    7.4235 O.3     1  UNL1       -0.4684
     27 O          60.0648   88.2280    7.1420 O.3     1  UNL1       -0.4684
     28 C          59.3654   89.5428    7.3216 C.3     1  UNL1        0.2526
@<TRIPOS>BOND
     1    25    26    1
     2    26     1    1
     3     1     2   ar
     4     2     3   ar
     5     3     4   ar
     6     4     5   ar
     7     5     6   ar
     8     6    27    1
     9    27    28    1
    10     4     7    1
    11     7     8    1
    12     8     9    1
    13     9    10    1
    14     9    11    1
    15    11    18    1
    16    18    19   ar
    17    19    20   ar
    18    20    21   ar
    19    21    22   ar
    20    22    23    1
    21    22    24   ar
    22    11    12    1
    23    12    13    1
    24    13    14    1
    25    14    15    1
    26     6     1   ar
    27    13     7    1
    28    15     3    1
    29    24    18   ar
    30    10    16    1
    31    10    17    1
@<TRIPOS>MOLECULE
*****
 28 31 0 0 0
SMALL
GASTEIGER

@<TRIPOS>ATOM
      1 C          63.4069   85.0524   13.0362 C.ar    1  UNL1        0.1721
      2 C          63.5132   86.5486   13.0412 C.ar    1  UNL1        0.0356
      3 C          62.8200   87.3532   11.9818 C.ar    1  UNL1       -0.0203
      4 C          62.0207   86.6616   10.9176 C.ar    1  UNL1       -0.0084
      5 C          61.9145   85.1654   10.9127 C.ar    1  UNL1        0.0368
      6 C          62.6076   84.3608   11.9720 C.ar    1  UNL1        0.1721
      7 C          61.3275   87.4662    9.8582 C.3     1  UNL1        0.0812
      8 C          60.5282   86.7746    8.7940 C.3     1  UNL1        0.0363
      9 C          59.8350   87.5792    7.7347 C.3     1  UNL1        0.0579
     10 N          59.0357   86.8875    6.6704 N.3     1  UNL1       -0.3219
     11 C          59.9413   89.0754    7.7396 C.3     1  UNL1        0.0525
     12 C          60.7406   89.7670    8.8038 C.3     1  UNL1        0.0780
     13 N          61.4338   88.9624    9.8632 N.3     1  UNL1       -0.2696
     14 C          62.2331   89.6540   10.9274 C.3     1  UNL1        0.0770
     15 C          62.9263   88.8495   11.9868 C.3     1  UNL1        0.0435
     16 H          59.0717   85.8791    6.8194 H       1  UNL1        0.1188
     17 H          59.4250   87.1099    5.7542 H       1  UNL1        0.1188
     18 C          59.2481   89.8800    6.6802 C.ar    1  UNL1       -0.0202
     19 C          57.7569   89.8048    6.5369 C.ar    1  UNL1       -0.0042
     20 C          57.0638   90.6094    5.4776 C.ar    1  UNL1       -0.0006
     21 C          57.8619   91.4892    4.5616 C.ar    1  UNL1       -0.0043
     22 C          59.3531   91.5643    4.7049 C.ar    1  UNL1       -0.0222
     23 C          60.1512   92.4441    3.7889 C.3     1  UNL1        0.0310
     24 C          60.0462   90.7597    5.7643 C.ar    1  UNL1       -0.0084
     25 C          63.3400   83.7842   15.3028 C.3     1  UNL1        0.2526
     26 O          64.1001   84.2478   14.0956 O.3     1  UNL1       -0.4684
     27 O          62.5013   82.8645   11.9670 O.3     1  UNL1       -0.4684
     28 C          63.4289   82.0496   11.1153 C.3     1  UNL1        0.2526
@<TRIPOS>BOND
     1    25    26    1
     2    26     1    1
     3     1     2   ar
     4     2     3   ar
     5     3     4   ar
     6     4     5   ar
     7     5     6   ar
     8     6    27    1
     9    27    28    1
    10     4     7    1
    11     7     8    1
    12     8     9    1
    13     9    10    1
    14     9    11    1
    15    11    18    1
    16    18    19   ar
    17    19    20   ar
    18    20    21   ar
    19    21    22   ar
    20    22    23    1
    21    22    24   ar
    22    11    12    1
    23    12    13    1
    24    13    14    1
    25    14    15    1
    26     6     1   ar
    27    13     7    1
    28    15     3    1
    29    24    18   ar
    30    10    16    1
    31    10    17    1
