@<TRIPOS>MOLECULE
*****
 39 43 0 0 0
SMALL
GASTEIGER

@<TRIPOS>ATOM
      1 C          61.1001   94.3426   -1.8400 C.3     1  UNL1        0.0807
      2 C          59.8453   95.0048   -4.0165 C.ar    1  UNL1        0.1351
      3 C          58.5819   95.4124   -4.7148 C.ar    1  UNL1        0.0366
      4 C          57.3097   95.5654   -3.9349 C.ar    1  UNL1        0.0030
      5 C          56.0463   95.9730   -4.6332 C.ar    1  UNL1        0.0006
      6 C          54.7742   96.1260   -3.8533 C.ar    1  UNL1        0.0067
      7 C          54.7655   95.8714   -2.3751 C.ar    1  UNL1        0.0346
      8 BR         53.4933   96.0245   -1.5952 Br      1  UNL1       -0.0490
      9 C          56.0289   95.4639   -1.6768 C.ar    1  UNL1        0.0067
     10 C          57.3010   95.3108   -2.4567 C.ar    1  UNL1        0.0004
     11 C          58.5645   94.9032   -1.7584 C.ar    1  UNL1       -0.0009
     12 C          59.8366   94.7502   -2.5383 C.ar    1  UNL1        0.0183
     13 C          61.5592   95.9382   -5.7317 C.3     1  UNL1        0.2525
     14 O          61.1175   94.8518   -4.7964 O.3     1  UNL1       -0.4717
     15 C          62.4198   94.8895   -2.2976 C.ar    1  UNL1        0.0375
     16 C          62.7918   96.3090   -1.9869 C.ar    1  UNL1        0.0023
     17 C          64.1115   96.8558   -2.4444 C.ar    1  UNL1        0.0206
     18 C          65.0592   95.9832   -3.2127 C.ar    1  UNL1        0.1020
     19 N          64.6872   94.5636   -3.5234 N.ar    1  UNL1       -0.2104
     20 C          63.3675   94.0167   -3.0659 C.ar    1  UNL1        0.2211
     21 O          62.9955   92.5972   -3.3765 O.3     1  UNL1       -0.4563
     22 C          63.6634   91.8779   -4.5109 C.3     1  UNL1        0.2542
     23 C          61.0438   93.3882   -0.6842 C.3     1  UNL1        0.1187
     24 O          60.4542   92.3390   -1.5793 O.3     1  UNL1       -0.3819
     25 H          59.8125   92.7496   -2.1798 H       1  UNL1        0.2107
     26 C          61.6335   94.4375    0.2109 C.ar    1  UNL1        0.0369
     27 C          60.7897   95.5874    0.6757 C.ar    1  UNL1        0.0010
     28 C          61.3793   96.6367    1.5708 C.ar    1  UNL1       -0.0000
     29 C          62.8128   96.5361    2.0012 C.ar    1  UNL1        0.0031
     30 C          63.6565   95.3863    1.5365 C.ar    1  UNL1        0.0375
     31 C          65.0891   95.0240    1.7943 C.ar    1  UNL1        0.0437
     32 C          65.3848   93.7508    1.0584 C.ar    1  UNL1        0.1796
     33 O          64.1350   93.3262    0.3459 O.2     1  UNL1       -0.4507
     34 C          63.0669   94.3370    0.6413 C.ar    1  UNL1        0.1436
     35 C          60.9876   92.4338    0.4716 C.3     1  UNL1        0.0492
     36 C          60.0964   92.7255    1.6425 C.3     1  UNL1        0.0750
     37 N          60.5520   92.3942    3.0326 N.3     1  UNL1       -0.2702
     38 C          59.5691   92.4010    4.1656 C.3     1  UNL1        0.0897
     39 C          61.9906   92.0559    3.2898 C.3     1  UNL1        0.0897
@<TRIPOS>BOND
     1    13    14    1
     2    14     2    1
     3     2     3   ar
     4     3     4   ar
     5     4     5   ar
     6     5     6   ar
     7     6     7   ar
     8     7     8    1
     9     7     9   ar
    10     9    10   ar
    11    10    11   ar
    12    11    12   ar
    13     1    12    1
    14     1    15    1
    15    15    16   ar
    16    16    17   ar
    17    17    18   ar
    18    18    19   ar
    19    19    20   ar
    20    20    21    1
    21    21    22    1
    22     1    23    1
    23    23    24    1
    24    23    35    1
    25    35    36    1
    26    36    37    1
    27    37    38    1
    28    37    39    1
    29    23    26    1
    30    26    27   ar
    31    27    28   ar
    32    28    29   ar
    33    29    30   ar
    34    30    31   ar
    35    31    32   ar
    36    32    33   ar
    37    33    34   ar
    38    12     2   ar
    39    20    15   ar
    40    34    26   ar
    41    10     4   ar
    42    34    30   ar
    43    24    25    1
@<TRIPOS>MOLECULE
*****
 39 43 0 0 0
SMALL
GASTEIGER

@<TRIPOS>ATOM
      1 C          60.5199   94.2572   -3.3918 C.3     1  UNL1        0.0807
      2 C          59.1842   93.9088   -5.5929 C.ar    1  UNL1        0.1351
      3 C          58.0656   93.2485   -6.3429 C.ar    1  UNL1        0.0366
      4 C          57.1637   92.2763   -5.6418 C.ar    1  UNL1        0.0030
      5 C          56.0450   91.6160   -6.3918 C.ar    1  UNL1        0.0006
      6 C          55.1432   90.6438   -5.6907 C.ar    1  UNL1        0.0067
      7 C          55.3601   90.3319   -4.2396 C.ar    1  UNL1        0.0346
      8 BR         54.4583   89.3596   -3.5385 Br      1  UNL1       -0.0490
      9 C          56.4788   90.9922   -3.4896 C.ar    1  UNL1        0.0067
     10 C          57.3806   91.9644   -4.1907 C.ar    1  UNL1        0.0004
     11 C          58.4993   92.6247   -3.4407 C.ar    1  UNL1       -0.0009
     12 C          59.4011   93.5969   -4.1418 C.ar    1  UNL1        0.0183
     13 C          60.8911   94.4368   -7.4792 C.3     1  UNL1        0.2525
     14 O          60.0861   94.8810   -6.2940 O.3     1  UNL1       -0.4717
     15 C          61.9446   93.9459   -3.7429 C.ar    1  UNL1        0.0375
     16 C          62.4946   92.5722   -3.4974 C.ar    1  UNL1        0.0023
     17 C          63.9193   92.2609   -3.8485 C.ar    1  UNL1        0.0206
     18 C          64.7940   93.3233   -4.4452 C.ar    1  UNL1        0.1020
     19 N          64.2440   94.6972   -4.6908 N.ar    1  UNL1       -0.2104
     20 C          62.8193   95.0084   -4.3397 C.ar    1  UNL1        0.2211
     21 O          62.2693   96.3822   -4.5852 O.3     1  UNL1       -0.4563
     22 C          62.0336   96.8559   -5.9888 C.3     1  UNL1        0.2542
     23 C          60.2139   95.2288   -2.2908 C.3     1  UNL1        0.1187
     24 O          59.6416   96.1857   -3.2942 O.3     1  UNL1       -0.3819
     25 H          60.1917   96.1838   -4.0931 H       1  UNL1        0.2107
     26 C          60.7862   94.2719   -1.2874 C.ar    1  UNL1        0.0369
     27 C          60.0007   93.0641   -0.8700 C.ar    1  UNL1        0.0010
     28 C          60.5730   92.1072    0.1334 C.ar    1  UNL1       -0.0000
     29 C          61.9308   92.3581    0.7195 C.ar    1  UNL1        0.0031
     30 C          62.7163   93.5659    0.3021 C.ar    1  UNL1        0.0375
     31 C          64.0700   94.0712    0.7047 C.ar    1  UNL1        0.0437
     32 C          64.3344   95.3404   -0.0498 C.ar    1  UNL1        0.1796
     33 O          63.1440   95.6195   -0.9188 O.2     1  UNL1       -0.4507
     34 C          62.1440   94.5228   -0.7014 C.ar    1  UNL1        0.1436
     35 C          59.9079   96.2004   -1.1897 C.3     1  UNL1        0.0492
     36 C          58.5605   96.8559   -1.1209 C.3     1  UNL1        0.0750
     37 N          57.3352   96.0973   -1.5369 N.3     1  UNL1       -0.2702
     38 C          57.0578   94.7431   -0.9545 C.3     1  UNL1        0.0897
     39 C          56.3872   96.6928   -2.5353 C.3     1  UNL1        0.0897
@<TRIPOS>BOND
     1    13    14    1
     2    14     2    1
     3     2     3   ar
     4     3     4   ar
     5     4     5   ar
     6     5     6   ar
     7     6     7   ar
     8     7     8    1
     9     7     9   ar
    10     9    10   ar
    11    10    11   ar
    12    11    12   ar
    13     1    12    1
    14     1    15    1
    15    15    16   ar
    16    16    17   ar
    17    17    18   ar
    18    18    19   ar
    19    19    20   ar
    20    20    21    1
    21    21    22    1
    22     1    23    1
    23    23    24    1
    24    23    35    1
    25    35    36    1
    26    36    37    1
    27    37    38    1
    28    37    39    1
    29    23    26    1
    30    26    27   ar
    31    27    28   ar
    32    28    29   ar
    33    29    30   ar
    34    30    31   ar
    35    31    32   ar
    36    32    33   ar
    37    33    34   ar
    38    12     2   ar
    39    20    15   ar
    40    34    26   ar
    41    10     4   ar
    42    34    30   ar
    43    24    25    1
@<TRIPOS>MOLECULE
*****
 39 43 0 0 0
SMALL
GASTEIGER

@<TRIPOS>ATOM
      1 C          61.4390   94.7242   -1.9786 C.3     1  UNL1        0.0807
      2 C          59.6108   92.9600   -1.4349 C.ar    1  UNL1        0.1351
      3 C          58.1640   92.5782   -1.3310 C.ar    1  UNL1        0.0366
      4 C          57.0982   93.5790   -1.6670 C.ar    1  UNL1        0.0030
      5 C          55.6514   93.1972   -1.5631 C.ar    1  UNL1        0.0006
      6 C          54.5857   94.1979   -1.8991 C.ar    1  UNL1        0.0067
      7 C          54.9669   95.5804   -2.3390 C.ar    1  UNL1        0.0346
      8 BR         53.9012   96.5811   -2.6750 Br      1  UNL1       -0.0490
      9 C          56.4138   95.9621   -2.4429 C.ar    1  UNL1        0.0067
     10 C          57.4794   94.9614   -2.1069 C.ar    1  UNL1        0.0004
     11 C          58.9264   95.3432   -2.2108 C.ar    1  UNL1       -0.0009
     12 C          59.9920   94.3425   -1.8748 C.ar    1  UNL1        0.0183
     13 C          60.5533   91.1190    0.1376 C.3     1  UNL1        0.2525
     14 O          60.6766   91.9593   -1.0988 O.3     1  UNL1       -0.4717
     15 C          62.3237   94.0450   -2.9816 C.ar    1  UNL1        0.0375
     16 C          63.3605   93.0626   -2.5235 C.ar    1  UNL1        0.0023
     17 C          64.2452   92.3834   -3.5265 C.ar    1  UNL1        0.0206
     18 C          64.0930   92.6865   -4.9876 C.ar    1  UNL1        0.1020
     19 N          63.0561   93.6689   -5.4458 N.ar    1  UNL1       -0.2104
     20 C          62.1715   94.3481   -4.4428 C.ar    1  UNL1        0.2211
     21 O          61.1346   95.3304   -4.9010 O.3     1  UNL1       -0.4563
     22 C          60.8497   95.4922   -6.3648 C.3     1  UNL1        0.2542
     23 C          62.0012   95.7851   -1.0796 C.3     1  UNL1        0.1187
     24 O          62.3722   96.6053   -2.2794 O.3     1  UNL1       -0.3819
     25 H          62.7158   96.0233   -2.9752 H       1  UNL1        0.2107
     26 C          61.6302   94.9649    0.1202 C.ar    1  UNL1        0.0369
     27 C          60.2628   95.0941    0.7234 C.ar    1  UNL1        0.0010
     28 C          59.8918   94.2740    1.9232 C.ar    1  UNL1       -0.0000
     29 C          60.8881   93.3246    2.5199 C.ar    1  UNL1        0.0031
     30 C          62.2554   93.1953    1.9168 C.ar    1  UNL1        0.0375
     31 C          63.4385   92.3496    2.2840 C.ar    1  UNL1        0.0437
     32 C          64.5408   92.6471    1.3112 C.ar    1  UNL1        0.1796
     33 O          64.0389   93.6767    0.3426 O.2     1  UNL1       -0.4507
     34 C          62.6264   94.0155    0.7169 C.ar    1  UNL1        0.1436
     35 C          62.5633   96.8460   -0.1805 C.3     1  UNL1        0.0492
     36 C          64.0265   96.8508    0.1503 C.3     1  UNL1        0.0750
     37 N          64.4719   96.8055    1.5819 N.3     1  UNL1       -0.2702
     38 C          65.9323   96.7096    1.9102 C.3     1  UNL1        0.0897
     39 C          63.4568   96.8559    2.6851 C.3     1  UNL1        0.0897
@<TRIPOS>BOND
     1    13    14    1
     2    14     2    1
     3     2     3   ar
     4     3     4   ar
     5     4     5   ar
     6     5     6   ar
     7     6     7   ar
     8     7     8    1
     9     7     9   ar
    10     9    10   ar
    11    10    11   ar
    12    11    12   ar
    13     1    12    1
    14     1    15    1
    15    15    16   ar
    16    16    17   ar
    17    17    18   ar
    18    18    19   ar
    19    19    20   ar
    20    20    21    1
    21    21    22    1
    22     1    23    1
    23    23    24    1
    24    23    35    1
    25    35    36    1
    26    36    37    1
    27    37    38    1
    28    37    39    1
    29    23    26    1
    30    26    27   ar
    31    27    28   ar
    32    28    29   ar
    33    29    30   ar
    34    30    31   ar
    35    31    32   ar
    36    32    33   ar
    37    33    34   ar
    38    12     2   ar
    39    20    15   ar
    40    34    26   ar
    41    10     4   ar
    42    34    30   ar
    43    24    25    1
@<TRIPOS>MOLECULE
*****
 39 43 0 0 0
SMALL
GASTEIGER

@<TRIPOS>ATOM
      1 C          61.9753   88.2523   11.0228 C.3     1  UNL1        0.0807
      2 C          63.6224   89.1267   12.8319 C.ar    1  UNL1        0.1351
      3 C          64.5978   90.1614   13.3094 C.ar    1  UNL1        0.0366
      4 C          64.9015   91.3565   12.4553 C.ar    1  UNL1        0.0030
      5 C          65.8768   92.3912   12.9329 C.ar    1  UNL1        0.0006
      6 C          66.1805   93.5863   12.0788 C.ar    1  UNL1        0.0067
      7 C          65.5089   93.7467   10.7472 C.ar    1  UNL1        0.0346
      8 BR         65.8126   94.9419    9.8931 Br      1  UNL1       -0.0490
      9 C          64.5335   92.7121   10.2697 C.ar    1  UNL1        0.0067
     10 C          64.2298   91.5170   11.1237 C.ar    1  UNL1        0.0004
     11 C          63.2544   90.4822   10.6462 C.ar    1  UNL1       -0.0009
     12 C          62.9507   89.2871   11.5003 C.ar    1  UNL1        0.0183
     13 C          64.3270   87.4486   14.6860 C.3     1  UNL1        0.2525
     14 O          63.3187   87.9315   13.6860 O.3     1  UNL1       -0.4717
     15 C          62.4737   86.9914   10.3812 C.ar    1  UNL1        0.0375
     16 C          62.9434   87.0096    8.9568 C.ar    1  UNL1        0.0023
     17 C          63.4418   85.7487    8.3152 C.ar    1  UNL1        0.0206
     18 C          63.4705   84.4695    9.0980 C.ar    1  UNL1        0.1020
     19 N          63.0008   84.4512   10.5225 N.ar    1  UNL1       -0.2104
     20 C          62.5024   85.7122   11.1641 C.ar    1  UNL1        0.2211
     21 O          62.0327   85.6940   12.5885 O.3     1  UNL1       -0.4563
     22 C          62.4284   84.5656   13.4944 C.3     1  UNL1        0.2542
     23 C          60.5016   88.4785   11.1869 C.3     1  UNL1        0.1187
     24 O          60.7454   89.0883   12.5355 O.3     1  UNL1       -0.3819
     25 H          61.4320   88.5838   12.9991 H       1  UNL1        0.2107
     26 C          60.2579   87.8688    9.8383 C.ar    1  UNL1        0.0369
     27 C          60.2459   86.3771    9.6807 C.ar    1  UNL1        0.0010
     28 C          60.0022   85.7673    8.3322 C.ar    1  UNL1       -0.0000
     29 C          59.7704   86.6491    7.1411 C.ar    1  UNL1        0.0031
     30 C          59.7823   88.1408    7.2986 C.ar    1  UNL1        0.0375
     31 C          59.5863   89.2556    6.3144 C.ar    1  UNL1        0.0437
     32 C          59.7089   90.5544    7.0548 C.ar    1  UNL1        0.1796
     33 O          59.9807   90.2423    8.4965 O.2     1  UNL1       -0.4507
     34 C          60.0261   88.7506    8.6473 C.ar    1  UNL1        0.1436
     35 C          59.0279   88.7047   11.3510 C.3     1  UNL1        0.0492
     36 C          58.5102   89.4302   12.5576 C.3     1  UNL1        0.0750
     37 N          57.9555   88.6568   13.7169 N.3     1  UNL1       -0.2702
     38 C          58.7416   88.5460   14.9895 C.3     1  UNL1        0.0897
     39 C          56.6145   87.9942   13.6036 C.3     1  UNL1        0.0897
@<TRIPOS>BOND
     1    13    14    1
     2    14     2    1
     3     2     3   ar
     4     3     4   ar
     5     4     5   ar
     6     5     6   ar
     7     6     7   ar
     8     7     8    1
     9     7     9   ar
    10     9    10   ar
    11    10    11   ar
    12    11    12   ar
    13     1    12    1
    14     1    15    1
    15    15    16   ar
    16    16    17   ar
    17    17    18   ar
    18    18    19   ar
    19    19    20   ar
    20    20    21    1
    21    21    22    1
    22     1    23    1
    23    23    24    1
    24    23    35    1
    25    35    36    1
    26    36    37    1
    27    37    38    1
    28    37    39    1
    29    23    26    1
    30    26    27   ar
    31    27    28   ar
    32    28    29   ar
    33    29    30   ar
    34    30    31   ar
    35    31    32   ar
    36    32    33   ar
    37    33    34   ar
    38    12     2   ar
    39    20    15   ar
    40    34    26   ar
    41    10     4   ar
    42    34    30   ar
    43    24    25    1
@<TRIPOS>MOLECULE
*****
 39 43 0 0 0
SMALL
GASTEIGER

@<TRIPOS>ATOM
      1 C          63.1126   88.7468   12.0602 C.3     1  UNL1        0.0807
      2 C          60.7233   88.5677   11.0556 C.ar    1  UNL1        0.1351
      3 C          59.7838   88.0044   10.0309 C.ar    1  UNL1        0.0366
      4 C          60.2942   87.0569    8.9859 C.ar    1  UNL1        0.0030
      5 C          59.3547   86.4936    7.9612 C.ar    1  UNL1        0.0006
      6 C          59.8651   85.5461    6.9163 C.ar    1  UNL1        0.0067
      7 C          61.3149   85.1620    6.8962 C.ar    1  UNL1        0.0346
      8 BR         61.8253   84.2145    5.8512 Br      1  UNL1       -0.0490
      9 C          62.2544   85.7252    7.9209 C.ar    1  UNL1        0.0067
     10 C          61.7440   86.6727    8.9658 C.ar    1  UNL1        0.0004
     11 C          62.6835   87.2360    9.9906 C.ar    1  UNL1       -0.0009
     12 C          62.1731   88.1835   11.0354 C.ar    1  UNL1        0.0183
     13 C          59.3065   90.6447   11.7102 C.3     1  UNL1        0.2525
     14 O          60.2129   89.5152   12.1005 O.3     1  UNL1       -0.4717
     15 C          63.6637   87.8623   13.1391 C.ar    1  UNL1        0.0375
     16 C          64.6866   88.3965   14.0973 C.ar    1  UNL1        0.0023
     17 C          65.2376   87.5119   15.1762 C.ar    1  UNL1        0.0206
     18 C          64.7658   86.0932   15.2967 C.ar    1  UNL1        0.1020
     19 N          63.7429   85.5589   14.3384 N.ar    1  UNL1       -0.2104
     20 C          63.1918   86.4435   13.2596 C.ar    1  UNL1        0.2211
     21 O          62.1689   85.9093   12.3013 O.3     1  UNL1       -0.4563
     22 C          62.2684   84.4958   11.8091 C.3     1  UNL1        0.2542
     23 C          63.5009   90.1946   12.0061 C.3     1  UNL1        0.1187
     24 O          63.6218   90.1065   10.5136 O.3     1  UNL1       -0.3819
     25 H          64.0333   89.2620   10.2719 H       1  UNL1        0.2107
     26 C          63.3801   90.2828   13.4986 C.ar    1  UNL1        0.0369
     27 C          62.2674   89.5661   14.2046 C.ar    1  UNL1        0.0010
     28 C          62.1465   89.6543   15.6971 C.ar    1  UNL1       -0.0000
     29 C          63.1383   90.4591   16.4837 C.ar    1  UNL1        0.0031
     30 C          64.2509   91.1759   15.7777 C.ar    1  UNL1        0.0375
     31 C          65.3690   92.0386   16.2831 C.ar    1  UNL1        0.0437
     32 C          66.1809   92.4837   15.1030 C.ar    1  UNL1        0.1796
     33 O          65.5646   91.8960   13.8682 O.2     1  UNL1       -0.4507
     34 C          64.3718   91.0877   14.2852 C.ar    1  UNL1        0.1436
     35 C          63.8893   91.6425   11.9521 C.3     1  UNL1        0.0492
     36 C          64.4946   92.2105   10.7026 C.3     1  UNL1        0.0750
     37 N          65.7676   93.0002   10.7779 N.3     1  UNL1       -0.2702
     38 C          65.7300   94.4480   11.1681 C.3     1  UNL1        0.0897
     39 C          67.0782   92.3420   10.4631 C.3     1  UNL1        0.0897
@<TRIPOS>BOND
     1    13    14    1
     2    14     2    1
     3     2     3   ar
     4     3     4   ar
     5     4     5   ar
     6     5     6   ar
     7     6     7   ar
     8     7     8    1
     9     7     9   ar
    10     9    10   ar
    11    10    11   ar
    12    11    12   ar
    13     1    12    1
    14     1    15    1
    15    15    16   ar
    16    16    17   ar
    17    17    18   ar
    18    18    19   ar
    19    19    20   ar
    20    20    21    1
    21    21    22    1
    22     1    23    1
    23    23    24    1
    24    23    35    1
    25    35    36    1
    26    36    37    1
    27    37    38    1
    28    37    39    1
    29    23    26    1
    30    26    27   ar
    31    27    28   ar
    32    28    29   ar
    33    29    30   ar
    34    30    31   ar
    35    31    32   ar
    36    32    33   ar
    37    33    34   ar
    38    12     2   ar
    39    20    15   ar
    40    34    26   ar
    41    10     4   ar
    42    34    30   ar
    43    24    25    1
