@<TRIPOS>MOLECULE
*****
 56 63 0 0 0
SMALL
GASTEIGER

@<TRIPOS>ATOM
      1 C          61.1801   88.2894    9.0516 C.2     1  UNL1        0.1542
      2 N          60.3454   89.3509    8.3985 N.2     1  UNL1       -0.0655
      3 C          59.4960   89.0116    7.2097 C.cat   1  UNL1        0.4642
      4 N          59.4812   87.6106    6.6740 N.2     1  UNL1        0.0296
      5 C          60.3158   86.5491    7.3270 C.2     1  UNL1        0.3685
      6 N          60.5035   85.0920    7.0241 N.2     1  UNL1       -0.0340
      7 C          61.4689   84.5309    8.0256 C.2     1  UNL1        0.2321
      8 C          61.8780   85.6412    8.9476 C.2     1  UNL1        0.0439
      9 C          61.1653   86.8884    8.5159 C.3     1  UNL1        0.1946
     10 N          64.8990   90.4353   13.8649 N.am    1  UNL1       -0.2526
     11 C          64.7169   89.0432   14.3926 C.3     1  UNL1        0.1229
     12 C          63.8901   88.0530   13.6269 C.3     1  UNL1        0.1280
     13 N          63.2456   88.4551   12.3336 N.ar    1  UNL1       -0.3206
     14 C          62.3814   87.7020   11.3661 C.ar    1  UNL1        0.0787
     15 C          62.0295   88.6289   10.2404 C.ar    1  UNL1        0.0498
     16 C          62.6762   89.9548   10.5122 C.ar    1  UNL1        0.0259
     17 C          63.4278   89.8474   11.8059 C.ar    1  UNL1        0.1147
     18 C          64.2545   90.8375   12.5715 C.2     1  UNL1        0.2687
     19 O          64.4367   92.2297   12.0438 O.2     1  UNL1       -0.2680
     20 C          67.0790   91.8252   14.1218 C.ar    1  UNL1       -0.0088
     21 C          67.9057   92.8154   14.8874 C.ar    1  UNL1       -0.0031
     22 C          67.3791   93.4058   16.1618 C.ar    1  UNL1       -0.0006
     23 C          66.0258   93.0060   16.6706 C.ar    1  UNL1       -0.0031
     24 C          65.1991   92.0159   15.9049 C.ar    1  UNL1       -0.0088
     25 C          65.7258   91.4255   14.6305 C.ar    1  UNL1        0.0462
     26 C          67.7679   92.0983   11.6316 C.3     1  UNL1        0.0051
     27 C          67.6056   91.2349   12.8474 C.3     1  UNL1        0.0276
     28 C          63.8458   91.6162   16.4137 C.3     1  UNL1        0.0276
     29 C          63.5916   90.1995   16.8360 C.3     1  UNL1        0.0051
     30 N          58.6613   90.0732    6.5567 N.pl3   1  UNL1       -0.1896
     31 H          57.7261   90.2046    6.8349 H       1  UNL1        0.2524
     32 C          59.2517   90.9345    5.4799 C.ar    1  UNL1        0.1435
     33 C          60.6931   90.7741    5.0970 C.ar    1  UNL1        0.0356
     34 C          61.2834   91.6355    4.0202 C.ar    1  UNL1        0.0174
     35 C          60.4323   92.6574    3.3263 C.ar    1  UNL1        0.0511
     36 C          58.9909   92.8179    3.7092 C.ar    1  UNL1        0.0541
     37 C          58.4007   91.9564    4.7860 C.ar    1  UNL1        0.1684
     38 N          61.0227   93.5188    2.2495 N.pl3   1  UNL1       -0.3072
     39 C          60.2708   94.7173    1.7513 C.3     1  UNL1        0.0937
     40 C          60.8612   95.5787    0.6745 C.3     1  UNL1        0.0573
     41 C          62.2033   95.2415    0.0959 C.3     1  UNL1        0.1596
     42 O          61.8785   96.4713   -0.6991 O.3     1  UNL1       -0.3780
     43 C          62.9552   94.0429    0.5941 C.3     1  UNL1        0.0573
     44 C          62.3648   93.1815    1.6709 C.3     1  UNL1        0.0937
     45 H          61.0124   96.8129   -0.4268 H       1  UNL1        0.2109
     46 C          63.4327   95.3314   -0.7588 C.2     1  UNL1        0.2499
     47 O          64.7088   95.8698   -0.1830 O.2     1  UNL1       -0.2724
     48 N          63.3861   94.8829   -2.1895 N.am    1  UNL1       -0.2748
     49 C          62.1099   94.3444   -2.7653 C.3     1  UNL1        0.1108
     50 C          62.0632   93.8959   -4.1959 C.3     1  UNL1        0.0939
     51 N          63.2926   93.9858   -5.0507 N.3     1  UNL1       -0.2686
     52 C          63.2458   93.5372   -6.4813 C.3     1  UNL1        0.0897
     53 C          64.5687   94.5242   -4.4748 C.3     1  UNL1        0.0939
     54 C          64.6154   94.9727   -3.0442 C.3     1  UNL1        0.1108
     55 O          56.9593   92.1169    5.1689 O.3     1  UNL1       -0.4687
     56 C          56.0073   90.9693    5.0048 C.3     1  UNL1        0.2526
@<TRIPOS>BOND
     1    26    27    1
     2    27    20    1
     3    20    21   ar
     4    21    22   ar
     5    22    23   ar
     6    23    24   ar
     7    24    28    1
     8    28    29    1
     9    24    25   ar
    10    25    10    1
    11    10    11    1
    12    11    12    1
    13    12    13    1
    14    13    14   ar
    15    14    15   ar
    16    15     1    1
    17     1     2    2
    18     2     3    1
    19     3    30    1
    20    30    32    1
    21    32    33   ar
    22    33    34   ar
    23    34    35   ar
    24    35    38    1
    25    38    39    1
    26    39    40    1
    27    40    41    1
    28    41    42    1
    29    41    46    1
    30    46    47    2
    31    46    48   am
    32    48    49    1
    33    49    50    1
    34    50    51    1
    35    51    52    1
    36    51    53    1
    37    53    54    1
    38    41    43    1
    39    43    44    1
    40    35    36   ar
    41    36    37   ar
    42    37    55    1
    43    55    56    1
    44     3     4    2
    45     4     5    1
    46     5     6    2
    47     6     7    1
    48     7     8    2
    49     8     9    1
    50    15    16   ar
    51    16    17   ar
    52    17    18    1
    53    18    19    2
    54    25    20   ar
    55    18    10   am
    56    17    13   ar
    57     9     1    1
    58    37    32   ar
    59     9     5    1
    60    44    38    1
    61    54    48    1
    62    30    31    1
    63    42    45    1
@<TRIPOS>MOLECULE
*****
 56 63 0 0 0
SMALL
GASTEIGER

@<TRIPOS>ATOM
      1 C          61.1849   88.5695    9.1377 C.2     1  UNL1        0.1542
      2 N          60.4485   89.6756    8.4419 N.2     1  UNL1       -0.0655
      3 C          59.5686   89.3677    7.2667 C.cat   1  UNL1        0.4642
      4 N          59.4250   87.9536    6.7874 N.2     1  UNL1        0.0296
      5 C          60.1613   86.8475    7.4833 C.2     1  UNL1        0.3685
      6 N          60.2149   85.3684    7.2391 N.2     1  UNL1       -0.0340
      7 C          61.1279   84.7623    8.2633 C.2     1  UNL1        0.2321
      8 C          61.6387   85.8667    9.1405 C.2     1  UNL1        0.0439
      9 C          61.0413   87.1554    8.6585 C.3     1  UNL1        0.1946
     10 N          65.0577   90.5761   13.8893 N.am    1  UNL1       -0.2526
     11 C          64.8280   89.1936   14.4237 C.3     1  UNL1        0.1229
     12 C          63.9511   88.2355   13.6732 C.3     1  UNL1        0.1280
     13 N          63.3039   88.6601   12.3883 N.ar    1  UNL1       -0.3206
     14 C          62.3961   87.9399   11.4359 C.ar    1  UNL1        0.0787
     15 C          62.0648   88.8774   10.3129 C.ar    1  UNL1        0.0498
     16 C          62.7678   90.1771   10.5712 C.ar    1  UNL1        0.0259
     17 C          63.5337   90.0427   11.8540 C.ar    1  UNL1        0.1147
     18 C          64.4105   91.0007   12.6045 C.2     1  UNL1        0.2687
     19 O          64.6403   92.3834   12.0701 O.2     1  UNL1       -0.2680
     20 C          65.4364   92.1775   15.8999 C.ar    1  UNL1       -0.0088
     21 C          66.3133   93.1356   16.6504 C.ar    1  UNL1       -0.0031
     22 C          67.6884   93.4504   16.1406 C.ar    1  UNL1       -0.0006
     23 C          68.1867   92.8071   14.8805 C.ar    1  UNL1       -0.0031
     24 C          67.3097   91.8490   14.1301 C.ar    1  UNL1       -0.0088
     25 C          65.9346   91.5343   14.6398 C.ar    1  UNL1        0.0462
     26 C          63.7175   90.4630   16.8254 C.3     1  UNL1        0.0051
     27 C          64.0612   91.8627   16.4096 C.3     1  UNL1        0.0276
     28 C          67.8081   91.2058   12.8699 C.3     1  UNL1        0.0276
     29 C          68.0350   92.0373   11.6423 C.3     1  UNL1        0.0051
     30 N          58.8323   90.4739    6.5709 N.pl3   1  UNL1       -0.1896
     31 H          57.9448   90.7531    6.8927 H       1  UNL1        0.2524
     32 C          59.4483   91.1547    5.3847 C.ar    1  UNL1        0.1435
     33 C          60.8975   90.9376    5.0643 C.ar    1  UNL1        0.0356
     34 C          61.5135   91.6184    3.8781 C.ar    1  UNL1        0.0174
     35 C          60.6803   92.5163    3.0122 C.ar    1  UNL1        0.0511
     36 C          59.2311   92.7334    3.3326 C.ar    1  UNL1        0.0541
     37 C          58.6151   92.0525    4.5189 C.ar    1  UNL1        0.1684
     38 N          61.2963   93.1971    1.8260 N.pl3   1  UNL1       -0.3072
     39 C          62.7591   93.5289    1.8277 C.3     1  UNL1        0.0937
     40 C          63.3751   94.2097    0.6415 C.3     1  UNL1        0.0573
     41 C          62.5283   94.5586   -0.5463 C.3     1  UNL1        0.1596
     42 O          63.8573   95.0738   -1.0136 O.3     1  UNL1       -0.3780
     43 C          61.0654   94.2267   -0.5481 C.3     1  UNL1        0.0573
     44 C          60.4494   93.5459    0.6381 C.3     1  UNL1        0.0937
     45 H          64.5252   94.9134   -0.3286 H       1  UNL1        0.2109
     46 C          62.1430   95.0864   -1.8966 C.2     1  UNL1        0.2499
     47 O          61.2195   96.2633   -2.0062 O.2     1  UNL1       -0.2724
     48 N          62.6812   94.4373   -3.1371 N.am    1  UNL1       -0.2748
     49 C          63.6047   93.2603   -3.0275 C.3     1  UNL1        0.1108
     50 C          64.1429   92.6112   -4.2681 C.3     1  UNL1        0.0939
     51 N          63.7576   93.1391   -5.6183 N.3     1  UNL1       -0.2686
     52 C          64.2958   92.4899   -6.8588 C.3     1  UNL1        0.0897
     53 C          62.8341   94.3160   -5.7279 C.3     1  UNL1        0.0939
     54 C          62.2959   94.9651   -4.4873 C.3     1  UNL1        0.1108
     55 O          57.1659   92.2696    4.8393 O.3     1  UNL1       -0.4687
     56 C          56.2225   91.1039    4.8736 C.3     1  UNL1        0.2526
@<TRIPOS>BOND
     1    26    27    1
     2    27    20    1
     3    20    21   ar
     4    21    22   ar
     5    22    23   ar
     6    23    24   ar
     7    24    28    1
     8    28    29    1
     9    24    25   ar
    10    25    10    1
    11    10    11    1
    12    11    12    1
    13    12    13    1
    14    13    14   ar
    15    14    15   ar
    16    15     1    1
    17     1     2    2
    18     2     3    1
    19     3    30    1
    20    30    32    1
    21    32    33   ar
    22    33    34   ar
    23    34    35   ar
    24    35    38    1
    25    38    39    1
    26    39    40    1
    27    40    41    1
    28    41    42    1
    29    41    46    1
    30    46    47    2
    31    46    48   am
    32    48    49    1
    33    49    50    1
    34    50    51    1
    35    51    52    1
    36    51    53    1
    37    53    54    1
    38    41    43    1
    39    43    44    1
    40    35    36   ar
    41    36    37   ar
    42    37    55    1
    43    55    56    1
    44     3     4    2
    45     4     5    1
    46     5     6    2
    47     6     7    1
    48     7     8    2
    49     8     9    1
    50    15    16   ar
    51    16    17   ar
    52    17    18    1
    53    18    19    2
    54    25    20   ar
    55    18    10   am
    56    17    13   ar
    57     9     1    1
    58    37    32   ar
    59     9     5    1
    60    44    38    1
    61    54    48    1
    62    30    31    1
    63    42    45    1
@<TRIPOS>MOLECULE
*****
 56 63 0 0 0
SMALL
GASTEIGER

@<TRIPOS>ATOM
      1 C          61.4629   89.3740    9.2967 C.2     1  UNL1        0.1542
      2 N          60.6019   90.0559    8.2751 N.2     1  UNL1       -0.0655
      3 C          59.5930   89.2650    7.4962 C.cat   1  UNL1        0.4642
      4 N          59.4451   87.7922    7.7390 N.2     1  UNL1        0.0296
      5 C          60.3060   87.1103    8.7606 C.2     1  UNL1        0.3685
      6 N          60.3858   85.6827    9.2143 N.2     1  UNL1       -0.0340
      7 C          61.4440   85.5914   10.2735 C.2     1  UNL1        0.2321
      8 C          62.0182   86.9625   10.4745 C.2     1  UNL1        0.0439
      9 C          61.3150   87.9012    9.5395 C.3     1  UNL1        0.1946
     10 N          65.7931   92.2122   13.1433 N.am    1  UNL1       -0.2526
     11 C          65.7501   93.2917   12.1029 C.3     1  UNL1        0.1229
     12 C          64.8548   93.1466   10.9081 C.3     1  UNL1        0.1280
     13 N          64.0026   91.9218   10.7538 N.ar    1  UNL1       -0.3206
     14 C          63.0298   91.5032    9.6916 C.ar    1  UNL1        0.0787
     15 C          62.4717   90.1650   10.0756 C.ar    1  UNL1        0.0498
     16 C          63.0996   89.7564   11.3751 C.ar    1  UNL1        0.0259
     17 C          64.0458   90.8422   11.7943 C.ar    1  UNL1        0.1147
     18 C          64.9410   90.9874   12.9891 C.2     1  UNL1        0.2687
     19 O          64.9841   89.9078   14.0296 O.2     1  UNL1       -0.2680
     20 C          68.1761   92.4204   14.1574 C.ar    1  UNL1       -0.0088
     21 C          69.0713   92.5656   15.3522 C.ar    1  UNL1       -0.0031
     22 C          68.4788   92.6475   16.7278 C.ar    1  UNL1       -0.0006
     23 C          66.9910   92.5844   16.9085 C.ar    1  UNL1       -0.0031
     24 C          66.0959   92.4393   15.7137 C.ar    1  UNL1       -0.0088
     25 C          66.6884   92.3573   14.3382 C.ar    1  UNL1        0.0462
     26 C          68.7295   91.0444   12.0241 C.3     1  UNL1        0.0051
     27 C          68.7686   92.3385   12.7819 C.3     1  UNL1        0.0276
     28 C          64.6081   92.3761   15.8945 C.3     1  UNL1        0.0276
     29 C          63.9969   91.2696   16.7020 C.3     1  UNL1        0.0051
     30 N          58.7320   89.9469    6.4746 N.pl3   1  UNL1       -0.1896
     31 H          57.7543   89.8343    6.5005 H       1  UNL1        0.2524
     32 C          59.3608   90.8005    5.4134 C.ar    1  UNL1        0.1435
     33 C          60.7913   90.5771    5.0212 C.ar    1  UNL1        0.0356
     34 C          61.4201   91.4307    3.9600 C.ar    1  UNL1        0.0174
     35 C          60.6183   92.5076    3.2910 C.ar    1  UNL1        0.0511
     36 C          59.1878   92.7309    3.6831 C.ar    1  UNL1        0.0541
     37 C          58.5591   91.8773    4.7444 C.ar    1  UNL1        0.1684
     38 N          61.2470   93.3612    2.2298 N.pl3   1  UNL1       -0.3072
     39 C          60.7019   94.7298    1.9474 C.3     1  UNL1        0.0937
     40 C          61.3307   95.5833    0.8862 C.3     1  UNL1        0.0573
     41 C          62.5046   95.0682    0.1075 C.3     1  UNL1        0.1596
     42 O          62.3483   96.4211   -0.5212 O.3     1  UNL1       -0.3780
     43 C          63.0497   93.6996    0.3898 C.3     1  UNL1        0.0573
     44 C          62.4209   92.8460    1.4510 C.3     1  UNL1        0.0937
     45 H          61.6046   96.8862   -0.1070 H       1  UNL1        0.2109
     46 C          63.6242   95.0230   -0.8897 C.2     1  UNL1        0.2499
     47 O          65.0404   95.2207   -0.4367 O.2     1  UNL1       -0.2724
     48 N          63.3277   94.7800   -2.3399 N.am    1  UNL1       -0.2748
     49 C          61.9114   94.5823   -2.7929 C.3     1  UNL1        0.1108
     50 C          61.6149   94.3394   -4.2431 C.3     1  UNL1        0.0939
     51 N          62.7346   94.2942   -5.2403 N.3     1  UNL1       -0.2686
     52 C          62.4379   94.0512   -6.6905 C.3     1  UNL1        0.0897
     53 C          64.1508   94.4919   -4.7873 C.3     1  UNL1        0.0939
     54 C          64.4473   94.7348   -3.3371 C.3     1  UNL1        0.1108
     55 O          57.1286   92.1006    5.1366 O.3     1  UNL1       -0.4687
     56 C          56.1117   91.0212    4.9110 C.3     1  UNL1        0.2526
@<TRIPOS>BOND
     1    26    27    1
     2    27    20    1
     3    20    21   ar
     4    21    22   ar
     5    22    23   ar
     6    23    24   ar
     7    24    28    1
     8    28    29    1
     9    24    25   ar
    10    25    10    1
    11    10    11    1
    12    11    12    1
    13    12    13    1
    14    13    14   ar
    15    14    15   ar
    16    15     1    1
    17     1     2    2
    18     2     3    1
    19     3    30    1
    20    30    32    1
    21    32    33   ar
    22    33    34   ar
    23    34    35   ar
    24    35    38    1
    25    38    39    1
    26    39    40    1
    27    40    41    1
    28    41    42    1
    29    41    46    1
    30    46    47    2
    31    46    48   am
    32    48    49    1
    33    49    50    1
    34    50    51    1
    35    51    52    1
    36    51    53    1
    37    53    54    1
    38    41    43    1
    39    43    44    1
    40    35    36   ar
    41    36    37   ar
    42    37    55    1
    43    55    56    1
    44     3     4    2
    45     4     5    1
    46     5     6    2
    47     6     7    1
    48     7     8    2
    49     8     9    1
    50    15    16   ar
    51    16    17   ar
    52    17    18    1
    53    18    19    2
    54    25    20   ar
    55    18    10   am
    56    17    13   ar
    57     9     1    1
    58    37    32   ar
    59     9     5    1
    60    44    38    1
    61    54    48    1
    62    30    31    1
    63    42    45    1
@<TRIPOS>MOLECULE
*****
 56 63 0 0 0
SMALL
GASTEIGER

@<TRIPOS>ATOM
      1 C          59.3533   91.0990    5.0808 C.2     1  UNL1        0.1542
      2 N          60.2379   90.1829    5.8733 N.2     1  UNL1       -0.0655
      3 C          59.6316   89.1690    6.7978 C.cat   1  UNL1        0.4642
      4 N          58.1407   89.0714    6.9297 N.2     1  UNL1        0.0296
      5 C          57.2560   89.9876    6.1372 C.2     1  UNL1        0.3685
      6 N          55.7642   90.1238    6.0601 N.2     1  UNL1       -0.0340
      7 C          55.4486   91.2217    5.0881 C.2     1  UNL1        0.2321
      8 C          56.7453   91.7642    4.5644 C.2     1  UNL1        0.0439
      9 C          57.8624   91.0014    5.2127 C.3     1  UNL1        0.1946
     10 N          62.5257   94.9717    1.0137 N.am    1  UNL1       -0.2526
     11 C          61.3607   95.8858    1.2519 C.3     1  UNL1        0.1229
     12 C          60.2529   95.4650    2.1716 C.3     1  UNL1        0.1280
     13 N          60.3103   94.1299    2.8531 N.ar    1  UNL1       -0.3206
     14 C          59.3735   93.4483    3.8058 C.ar    1  UNL1        0.0787
     15 C          59.9597   92.1129    4.1564 C.ar    1  UNL1        0.0498
     16 C          61.2588   91.9691    3.4204 C.ar    1  UNL1        0.0259
     17 C          61.4755   93.2158    2.6148 C.ar    1  UNL1        0.1147
     18 C          62.5832   93.6367    1.6951 C.2     1  UNL1        0.2687
     19 O          63.7483   92.7225    1.4569 O.2     1  UNL1       -0.2680
     20 C          64.7175   96.3017    0.5924 C.ar    1  UNL1       -0.0088
     21 C          65.8253   96.7226   -0.3273 C.ar    1  UNL1       -0.0031
     22 C          65.8490   96.2342   -1.7454 C.ar    1  UNL1       -0.0006
     23 C          64.7650   95.3250   -2.2437 C.ar    1  UNL1       -0.0031
     24 C          63.6573   94.9042   -1.3240 C.ar    1  UNL1       -0.0088
     25 C          63.6335   95.3926    0.0940 C.ar    1  UNL1        0.0462
     26 C          65.3097   95.9624    3.0992 C.3     1  UNL1        0.0051
     27 C          64.6937   96.7901    2.0104 C.3     1  UNL1        0.0276
     28 C          62.5733   93.9950   -1.8225 C.3     1  UNL1        0.0276
     29 C          62.6002   93.5018   -3.2388 C.3     1  UNL1        0.0051
     30 N          60.5163   88.2529    7.5902 N.pl3   1  UNL1       -0.1896
     31 H          60.7360   87.3584    7.2426 H       1  UNL1        0.2524
     32 C          61.0663   88.6997    8.9123 C.ar    1  UNL1        0.1435
     33 C          60.7385   90.0658    9.4379 C.ar    1  UNL1        0.0356
     34 C          61.2885   90.5126   10.7600 C.ar    1  UNL1        0.0174
     35 C          62.1662   89.5932   11.5565 C.ar    1  UNL1        0.0511
     36 C          62.4940   88.2271   11.0310 C.ar    1  UNL1        0.0541
     37 C          61.9440   87.7804    9.7088 C.ar    1  UNL1        0.1684
     38 N          62.7162   90.0400   12.8786 N.pl3   1  UNL1       -0.3072
     39 C          62.3601   89.2935   14.1300 C.3     1  UNL1        0.0937
     40 C          62.9101   89.7403   15.4521 C.3     1  UNL1        0.0573
     41 C          63.8160   90.9337   15.5227 C.3     1  UNL1        0.1596
     42 O          63.7690   90.5560   16.9737 O.3     1  UNL1       -0.3780
     43 C          64.1721   91.6802   14.2714 C.3     1  UNL1        0.0573
     44 C          63.6221   91.2334   12.9493 C.3     1  UNL1        0.0937
     45 H          63.2030   89.7764   17.0867 H       1  UNL1        0.2109
     46 C          64.7057   91.9959   16.0974 C.2     1  UNL1        0.2499
     47 O          64.1922   92.9004   17.1782 O.2     1  UNL1       -0.2724
     48 N          66.1089   92.1537   15.5912 N.am    1  UNL1       -0.2748
     49 C          66.6224   91.2492   14.5103 C.3     1  UNL1        0.1108
     50 C          68.0256   91.4070   14.0042 C.3     1  UNL1        0.0939
     51 N          68.9152   92.4692   14.5788 N.3     1  UNL1       -0.2686
     52 C          70.3184   92.6269   14.0726 C.3     1  UNL1        0.0897
     53 C          68.4017   93.3737   15.6596 C.3     1  UNL1        0.0939
     54 C          66.9985   93.2159   16.1658 C.3     1  UNL1        0.1108
     55 O          62.2717   86.4142    9.1833 O.3     1  UNL1       -0.4687
     56 C          62.5535   85.2913   10.1371 C.3     1  UNL1        0.2526
@<TRIPOS>BOND
     1    26    27    1
     2    27    20    1
     3    20    21   ar
     4    21    22   ar
     5    22    23   ar
     6    23    24   ar
     7    24    28    1
     8    28    29    1
     9    24    25   ar
    10    25    10    1
    11    10    11    1
    12    11    12    1
    13    12    13    1
    14    13    14   ar
    15    14    15   ar
    16    15     1    1
    17     1     2    2
    18     2     3    1
    19     3    30    1
    20    30    32    1
    21    32    33   ar
    22    33    34   ar
    23    34    35   ar
    24    35    38    1
    25    38    39    1
    26    39    40    1
    27    40    41    1
    28    41    42    1
    29    41    46    1
    30    46    47    2
    31    46    48   am
    32    48    49    1
    33    49    50    1
    34    50    51    1
    35    51    52    1
    36    51    53    1
    37    53    54    1
    38    41    43    1
    39    43    44    1
    40    35    36   ar
    41    36    37   ar
    42    37    55    1
    43    55    56    1
    44     3     4    2
    45     4     5    1
    46     5     6    2
    47     6     7    1
    48     7     8    2
    49     8     9    1
    50    15    16   ar
    51    16    17   ar
    52    17    18    1
    53    18    19    2
    54    25    20   ar
    55    18    10   am
    56    17    13   ar
    57     9     1    1
    58    37    32   ar
    59     9     5    1
    60    44    38    1
    61    54    48    1
    62    30    31    1
    63    42    45    1
@<TRIPOS>MOLECULE
*****
 56 63 0 0 0
SMALL
GASTEIGER

@<TRIPOS>ATOM
      1 C          59.3602   91.0932    5.0859 C.2     1  UNL1        0.1542
      2 N          60.2434   90.1771    5.8800 N.2     1  UNL1       -0.0655
      3 C          59.6355   89.1631    6.8032 C.cat   1  UNL1        0.4642
      4 N          58.1443   89.0652    6.9322 N.2     1  UNL1        0.0296
      5 C          57.2611   89.9813    6.1381 C.2     1  UNL1        0.3685
      6 N          55.7693   90.1173    6.0582 N.2     1  UNL1       -0.0340
      7 C          55.4554   91.2153    5.0856 C.2     1  UNL1        0.2321
      8 C          56.7531   91.7580    4.5645 C.2     1  UNL1        0.0439
      9 C          57.8690   90.9954    5.2149 C.3     1  UNL1        0.1946
     10 N          62.5308   94.9592    1.0110 N.am    1  UNL1       -0.2526
     11 C          61.3834   95.8883    1.2757 C.3     1  UNL1        0.1229
     12 C          60.2830   95.4747    2.2076 C.3     1  UNL1        0.1280
     13 N          60.3302   94.1321    2.8746 N.ar    1  UNL1       -0.3206
     14 C          59.3973   93.4549    3.8344 C.ar    1  UNL1        0.0787
     15 C          59.9683   92.1072    4.1628 C.ar    1  UNL1        0.0498
     16 C          61.2540   91.9515    3.4060 C.ar    1  UNL1        0.0259
     17 C          61.4777   93.2029    2.6098 C.ar    1  UNL1        0.1147
     18 C          62.5779   93.6165    1.6780 C.2     1  UNL1        0.2687
     19 O          63.7254   92.6874    1.4132 O.2     1  UNL1       -0.2680
     20 C          63.6217   94.9061   -1.3464 C.ar    1  UNL1       -0.0088
     21 C          64.7220   95.3197   -2.2783 C.ar    1  UNL1       -0.0031
     22 C          65.8318   96.1998   -1.7845 C.ar    1  UNL1       -0.0006
     23 C          65.8412   96.6663   -0.3589 C.ar    1  UNL1       -0.0031
     24 C          64.7409   96.2528    0.5729 C.ar    1  UNL1       -0.0088
     25 C          63.6311   95.3727    0.0791 C.ar    1  UNL1        0.0462
     26 C          62.5101   93.5475   -3.2618 C.3     1  UNL1        0.0051
     27 C          62.5119   94.0260   -1.8402 C.3     1  UNL1        0.0276
     28 C          64.7504   96.7194    1.9984 C.3     1  UNL1        0.0276
     29 C          65.2039   95.7934    3.0878 C.3     1  UNL1        0.0051
     30 N          60.5188   88.2470    7.5973 N.pl3   1  UNL1       -0.1896
     31 H          60.7374   87.3517    7.2511 H       1  UNL1        0.2524
     32 C          61.0690   88.6951    8.9188 C.ar    1  UNL1        0.1435
     33 C          60.6939   90.0385    9.4708 C.ar    1  UNL1        0.0356
     34 C          61.2441   90.4866   10.7923 C.ar    1  UNL1        0.0174
     35 C          62.1695   89.5913   11.5619 C.ar    1  UNL1        0.0511
     36 C          62.5446   88.2479   11.0100 C.ar    1  UNL1        0.0541
     37 C          61.9943   87.7999    9.6884 C.ar    1  UNL1        0.1684
     38 N          62.7197   90.0394   12.8835 N.pl3   1  UNL1       -0.3072
     39 C          62.3621   89.2954   14.1359 C.3     1  UNL1        0.0937
     40 C          62.9123   89.7436   15.4574 C.3     1  UNL1        0.0573
     41 C          63.8201   90.9356   15.5264 C.3     1  UNL1        0.1596
     42 O          63.7720   90.5605   16.9780 O.3     1  UNL1       -0.3780
     43 C          64.1777   91.6796   14.2740 C.3     1  UNL1        0.0573
     44 C          63.6275   91.2315   12.9525 C.3     1  UNL1        0.0937
     45 H          63.2048   89.7819   17.0921 H       1  UNL1        0.2109
     46 C          64.7112   91.9975   16.0996 C.2     1  UNL1        0.2499
     47 O          64.1987   92.9046   17.1787 O.2     1  UNL1       -0.2724
     48 N          66.1148   92.1522   15.5937 N.am    1  UNL1       -0.2748
     49 C          66.6273   91.2450   14.5146 C.3     1  UNL1        0.1108
     50 C          68.0309   91.3998   14.0087 C.3     1  UNL1        0.0939
     51 N          68.9221   92.4616   14.5818 N.3     1  UNL1       -0.2686
     52 C          70.3257   92.6162   14.0759 C.3     1  UNL1        0.0897
     53 C          68.4095   93.3687   15.6609 C.3     1  UNL1        0.0939
     54 C          67.0059   93.2140   16.1668 C.3     1  UNL1        0.1108
     55 O          62.3695   86.4565    9.1364 O.3     1  UNL1       -0.4687
     56 C          62.4662   85.2706   10.0499 C.3     1  UNL1        0.2526
@<TRIPOS>BOND
     1    26    27    1
     2    27    20    1
     3    20    21   ar
     4    21    22   ar
     5    22    23   ar
     6    23    24   ar
     7    24    28    1
     8    28    29    1
     9    24    25   ar
    10    25    10    1
    11    10    11    1
    12    11    12    1
    13    12    13    1
    14    13    14   ar
    15    14    15   ar
    16    15     1    1
    17     1     2    2
    18     2     3    1
    19     3    30    1
    20    30    32    1
    21    32    33   ar
    22    33    34   ar
    23    34    35   ar
    24    35    38    1
    25    38    39    1
    26    39    40    1
    27    40    41    1
    28    41    42    1
    29    41    46    1
    30    46    47    2
    31    46    48   am
    32    48    49    1
    33    49    50    1
    34    50    51    1
    35    51    52    1
    36    51    53    1
    37    53    54    1
    38    41    43    1
    39    43    44    1
    40    35    36   ar
    41    36    37   ar
    42    37    55    1
    43    55    56    1
    44     3     4    2
    45     4     5    1
    46     5     6    2
    47     6     7    1
    48     7     8    2
    49     8     9    1
    50    15    16   ar
    51    16    17   ar
    52    17    18    1
    53    18    19    2
    54    25    20   ar
    55    18    10   am
    56    17    13   ar
    57     9     1    1
    58    37    32   ar
    59     9     5    1
    60    44    38    1
    61    54    48    1
    62    30    31    1
    63    42    45    1
