@<TRIPOS>MOLECULE
*****
 26 28 0 0 0
SMALL
GASTEIGER

@<TRIPOS>ATOM
      1 C          63.0171   91.0818   10.1097 C.3     1  UNL1        0.0992
      2 C          65.7572   92.2658   13.4772 C.3     1  UNL1        0.0743
      3 C          64.7549   91.1679   13.6766 C.3     1  UNL1        0.0369
      4 C          63.8415   90.7732   12.5541 C.3     1  UNL1        0.0741
      5 N          63.9305   91.4765   11.2322 N.3     1  UNL1       -0.2688
      6 C          64.9328   92.5744   11.0328 C.3     1  UNL1        0.0741
      7 C          65.8461   92.9691   12.1553 C.3     1  UNL1        0.0369
      8 C          68.1451   92.4083   14.4908 C.2     1  UNL1        0.2224
      9 O          68.7064   91.7613   13.2594 O.2     1  UNL1       -0.2751
     10 N          66.6705   92.6605   14.5997 N.am    1  UNL1       -0.3059
     11 H          66.3021   93.0852   15.4079 H       1  UNL1        0.1494
     12 C          69.0445   94.2104   16.1320 C.3     1  UNL1        0.0101
     13 C          69.0584   92.8030   15.6133 C.3     1  UNL1        0.0851
     14 C          62.0164   89.9822   10.3083 C.ar    1  UNL1       -0.0031
     15 C          60.7171   90.2669   11.0017 C.ar    1  UNL1       -0.0027
     16 C          59.7164   89.1673   11.2003 C.ar    1  UNL1        0.0029
     17 C          60.0149   87.7830   10.7056 C.ar    1  UNL1        0.0375
     18 C          61.3142   87.4984   10.0123 C.ar    1  UNL1        0.1450
     19 C          62.3150   88.5980    9.8136 C.ar    1  UNL1        0.0346
     20 O          61.6128   86.1141    9.5176 O.3     1  UNL1       -0.4535
     21 C          62.4828   85.1995   10.3278 C.ar    1  UNL1        0.1453
     22 C          63.3786   84.2122    9.6400 C.ar    1  UNL1        0.0375
     23 C          64.2486   83.2976   10.4502 C.ar    1  UNL1        0.0031
     24 C          64.2229   83.3702   11.9482 C.ar    1  UNL1        0.0002
     25 C          63.3273   84.3574   12.6360 C.ar    1  UNL1        0.0031
     26 C          62.4572   85.2721   11.8258 C.ar    1  UNL1        0.0375
@<TRIPOS>BOND
     1    12    13    1
     2    13     8    1
     3     8     9    2
     4     8    10   am
     5    10     2    1
     6     2     3    1
     7     3     4    1
     8     4     5    1
     9     5     1    1
    10     1    14    1
    11    14    15   ar
    12    15    16   ar
    13    16    17   ar
    14    17    18   ar
    15    18    20    1
    16    20    21    1
    17    21    22   ar
    18    22    23   ar
    19    23    24   ar
    20    24    25   ar
    21    25    26   ar
    22    18    19   ar
    23     5     6    1
    24     6     7    1
    25     7     2    1
    26    19    14   ar
    27    26    21   ar
    28    10    11    1
@<TRIPOS>MOLECULE
*****
 26 28 0 0 0
SMALL
GASTEIGER

@<TRIPOS>ATOM
      1 C          63.5314   90.1661   15.8725 C.3     1  UNL1        0.0992
      2 C          65.5729   92.0133   12.3131 C.3     1  UNL1        0.0743
      3 C          64.1765   91.4810   12.1841 C.3     1  UNL1        0.0369
      4 C          63.4960   90.8653   13.3706 C.3     1  UNL1        0.0741
      5 N          64.2119   90.7818   14.6860 N.3     1  UNL1       -0.2688
      6 C          65.6083   91.3142   14.8150 C.3     1  UNL1        0.0741
      7 C          66.2888   91.9299   13.6285 C.3     1  UNL1        0.0369
      8 C          66.4954   94.1088   11.0851 C.2     1  UNL1        0.2224
      9 O          66.0569   94.9729   12.2302 O.2     1  UNL1       -0.2751
     10 N          66.2534   92.6291   11.1266 N.am    1  UNL1       -0.3059
     11 H          66.5412   92.0620   10.3750 H       1  UNL1        0.1494
     12 C          67.9553   93.8625    8.9501 C.3     1  UNL1        0.0101
     13 C          67.1760   94.7245    9.8986 C.3     1  UNL1        0.0851
     14 C          63.5431   88.6773   16.0548 C.ar    1  UNL1       -0.0031
     15 C          62.8697   88.0621   17.2457 C.ar    1  UNL1       -0.0027
     16 C          62.8814   86.5733   17.4280 C.ar    1  UNL1        0.0029
     17 C          63.5666   85.6996   16.4195 C.ar    1  UNL1        0.0375
     18 C          64.2401   86.3147   15.2287 C.ar    1  UNL1        0.1450
     19 C          64.2283   87.8036   15.0463 C.ar    1  UNL1        0.0346
     20 O          64.9253   85.4410   14.2201 O.3     1  UNL1       -0.4535
     21 C          64.1480   84.3856   13.4909 C.ar    1  UNL1        0.1453
     22 C          63.3129   84.7566   12.3013 C.ar    1  UNL1        0.0375
     23 C          62.5356   83.7012   11.5721 C.ar    1  UNL1        0.0031
     24 C          62.5934   82.2747   12.0323 C.ar    1  UNL1        0.0002
     25 C          63.4284   81.9037   13.2217 C.ar    1  UNL1        0.0031
     26 C          64.2058   82.9591   13.9511 C.ar    1  UNL1        0.0375
@<TRIPOS>BOND
     1    12    13    1
     2    13     8    1
     3     8     9    2
     4     8    10   am
     5    10     2    1
     6     2     3    1
     7     3     4    1
     8     4     5    1
     9     5     1    1
    10     1    14    1
    11    14    15   ar
    12    15    16   ar
    13    16    17   ar
    14    17    18   ar
    15    18    20    1
    16    20    21    1
    17    21    22   ar
    18    22    23   ar
    19    23    24   ar
    20    24    25   ar
    21    25    26   ar
    22    18    19   ar
    23     5     6    1
    24     6     7    1
    25     7     2    1
    26    19    14   ar
    27    26    21   ar
    28    10    11    1
@<TRIPOS>MOLECULE
*****
 26 28 0 0 0
SMALL
GASTEIGER

@<TRIPOS>ATOM
      1 C          63.4597   90.1175   15.9353 C.3     1  UNL1        0.0992
      2 C          63.9378   85.6562   15.5920 C.3     1  UNL1        0.0743
      3 C          63.2073   86.2443   16.7626 C.3     1  UNL1        0.0369
      4 C          63.0480   87.7314   16.8770 C.3     1  UNL1        0.0741
      5 N          63.6191   88.6304   15.8208 N.3     1  UNL1       -0.2688
      6 C          64.3496   88.0423   14.6502 C.3     1  UNL1        0.0741
      7 C          64.5089   86.5551   14.5358 C.3     1  UNL1        0.0369
      8 C          63.3941   83.4214   14.3836 C.2     1  UNL1        0.2224
      9 O          62.5317   84.1609   13.4041 O.2     1  UNL1       -0.2751
     10 N          64.0971   84.1691   15.4775 N.am    1  UNL1       -0.3059
     11 H          64.6632   83.6837   16.1204 H       1  UNL1        0.1494
     12 C          62.8349   81.1841   13.1871 C.3     1  UNL1        0.0101
     13 C          63.5535   81.9343   14.2692 C.3     1  UNL1        0.0851
     14 C          64.3723   91.0306   15.1714 C.ar    1  UNL1       -0.0031
     15 C          65.3738   91.8741   15.9033 C.ar    1  UNL1       -0.0027
     16 C          66.2864   92.7871   15.1395 C.ar    1  UNL1        0.0029
     17 C          66.1975   92.8568   13.6437 C.ar    1  UNL1        0.0375
     18 C          65.1961   92.0133   12.9118 C.ar    1  UNL1        0.1450
     19 C          64.2835   91.1002   13.6757 C.ar    1  UNL1        0.0346
     20 O          65.1072   92.0830   11.4161 O.3     1  UNL1       -0.4535
     21 C          66.0635   92.9458   10.6473 C.ar    1  UNL1        0.1453
     22 C          67.3265   92.3562   10.0931 C.ar    1  UNL1        0.0375
     23 C          68.2828   93.2190    9.3244 C.ar    1  UNL1        0.0031
     24 C          67.9760   94.6716    9.1097 C.ar    1  UNL1        0.0002
     25 C          66.7130   95.2612    9.6639 C.ar    1  UNL1        0.0031
     26 C          65.7567   94.3984   10.4327 C.ar    1  UNL1        0.0375
@<TRIPOS>BOND
     1    12    13    1
     2    13     8    1
     3     8     9    2
     4     8    10   am
     5    10     2    1
     6     2     3    1
     7     3     4    1
     8     4     5    1
     9     5     1    1
    10     1    14    1
    11    14    15   ar
    12    15    16   ar
    13    16    17   ar
    14    17    18   ar
    15    18    20    1
    16    20    21    1
    17    21    22   ar
    18    22    23   ar
    19    23    24   ar
    20    24    25   ar
    21    25    26   ar
    22    18    19   ar
    23     5     6    1
    24     6     7    1
    25     7     2    1
    26    19    14   ar
    27    26    21   ar
    28    10    11    1
@<TRIPOS>MOLECULE
*****
 26 28 0 0 0
SMALL
GASTEIGER

@<TRIPOS>ATOM
      1 C          61.6127   90.4212   10.3375 C.3     1  UNL1        0.0992
      2 C          64.7333   90.8938   13.5451 C.3     1  UNL1        0.0743
      3 C          63.5254   90.0399   13.7938 C.3     1  UNL1        0.0369
      4 C          62.4852   89.8824   12.7246 C.3     1  UNL1        0.0741
      5 N          62.6529   90.5788   11.4067 N.3     1  UNL1       -0.2688
      6 C          63.8608   91.4327   11.1580 C.3     1  UNL1        0.0741
      7 C          64.9010   91.5902   12.2272 C.3     1  UNL1        0.0369
      8 C          66.3044   92.4136   14.9493 C.2     1  UNL1        0.2224
      9 O          65.7952   93.6185   14.2150 O.2     1  UNL1       -0.2751
     10 N          65.7735   91.0513   14.6143 N.am    1  UNL1       -0.3059
     11 H          66.1077   90.2606   15.0962 H       1  UNL1        0.1494
     12 C          68.6807   93.1651   15.6833 C.3     1  UNL1        0.0101
     13 C          67.3446   92.5711   16.0185 C.3     1  UNL1        0.0851
     14 C          61.2766   89.0566    9.8134 C.ar    1  UNL1       -0.0031
     15 C          59.8807   88.7515    9.3566 C.ar    1  UNL1       -0.0027
     16 C          59.5446   87.3868    8.8325 C.ar    1  UNL1        0.0029
     17 C          60.6042   86.3273    8.7652 C.ar    1  UNL1        0.0375
     18 C          62.0000   86.6324    9.2219 C.ar    1  UNL1        0.1450
     19 C          62.3362   87.9971    9.7461 C.ar    1  UNL1        0.0346
     20 O          63.0596   85.5728    9.1546 O.3     1  UNL1       -0.4535
     21 C          63.1972   84.5778   10.2686 C.ar    1  UNL1        0.1453
     22 C          62.5508   84.8438   11.5958 C.ar    1  UNL1        0.0375
     23 C          62.6884   83.8488   12.7098 C.ar    1  UNL1        0.0031
     24 C          63.4723   82.5878   12.4967 C.ar    1  UNL1        0.0002
     25 C          64.1187   82.3219   11.1695 C.ar    1  UNL1        0.0031
     26 C          63.9811   83.3169   10.0554 C.ar    1  UNL1        0.0375
@<TRIPOS>BOND
     1    12    13    1
     2    13     8    1
     3     8     9    2
     4     8    10   am
     5    10     2    1
     6     2     3    1
     7     3     4    1
     8     4     5    1
     9     5     1    1
    10     1    14    1
    11    14    15   ar
    12    15    16   ar
    13    16    17   ar
    14    17    18   ar
    15    18    20    1
    16    20    21    1
    17    21    22   ar
    18    22    23   ar
    19    23    24   ar
    20    24    25   ar
    21    25    26   ar
    22    18    19   ar
    23     5     6    1
    24     6     7    1
    25     7     2    1
    26    19    14   ar
    27    26    21   ar
    28    10    11    1
@<TRIPOS>MOLECULE
*****
 26 28 0 0 0
SMALL
GASTEIGER

@<TRIPOS>ATOM
      1 C          60.8375   89.9201   10.2427 C.3     1  UNL1        0.0992
      2 C          64.4582   91.1354   12.6226 C.3     1  UNL1        0.0743
      3 C          63.4676   90.1706   13.2041 C.3     1  UNL1        0.0369
      4 C          62.2608   89.7656   12.4108 C.3     1  UNL1        0.0741
      5 N          62.0444   90.3252   11.0360 N.3     1  UNL1       -0.2688
      6 C          63.0350   91.2899   10.4546 C.3     1  UNL1        0.0741
      7 C          64.2419   91.6950   11.2479 C.3     1  UNL1        0.0369
      8 C          65.5228   91.9065   14.8636 C.2     1  UNL1        0.2224
      9 O          64.1736   91.8674   15.5180 O.2     1  UNL1       -0.2751
     10 N          65.6651   91.5404   13.4160 N.am    1  UNL1       -0.3059
     11 H          66.5506   91.5660   12.9865 H       1  UNL1        0.1494
     12 C          68.1045   92.0532   15.1154 C.3     1  UNL1        0.0101
     13 C          66.7297   92.3115   15.6569 C.3     1  UNL1        0.0851
     14 C          60.8226   88.6070    9.5178 C.ar    1  UNL1       -0.0031
     15 C          59.6372   88.2254    8.6816 C.ar    1  UNL1       -0.0027
     16 C          59.6222   86.9123    7.9568 C.ar    1  UNL1        0.0029
     17 C          60.7926   85.9808    8.0680 C.ar    1  UNL1        0.0375
     18 C          61.9780   86.3624    8.9041 C.ar    1  UNL1        0.1450
     19 C          61.9930   87.6755    9.6291 C.ar    1  UNL1        0.0346
     20 O          63.1485   85.4309    9.0154 O.3     1  UNL1       -0.4535
     21 C          63.2497   84.4893   10.1786 C.ar    1  UNL1        0.1453
     22 C          64.0070   83.2021   10.0378 C.ar    1  UNL1        0.0375
     23 C          64.1082   82.2604   11.2010 C.ar    1  UNL1        0.0031
     24 C          63.4522   82.6059   12.5050 C.ar    1  UNL1        0.0002
     25 C          62.6949   83.8930   12.6457 C.ar    1  UNL1        0.0031
     26 C          62.5937   84.8347   11.4825 C.ar    1  UNL1        0.0375
@<TRIPOS>BOND
     1    12    13    1
     2    13     8    1
     3     8     9    2
     4     8    10   am
     5    10     2    1
     6     2     3    1
     7     3     4    1
     8     4     5    1
     9     5     1    1
    10     1    14    1
    11    14    15   ar
    12    15    16   ar
    13    16    17   ar
    14    17    18   ar
    15    18    20    1
    16    20    21    1
    17    21    22   ar
    18    22    23   ar
    19    23    24   ar
    20    24    25   ar
    21    25    26   ar
    22    18    19   ar
    23     5     6    1
    24     6     7    1
    25     7     2    1
    26    19    14   ar
    27    26    21   ar
    28    10    11    1
@<TRIPOS>MOLECULE
*****
 26 28 0 0 0
SMALL
GASTEIGER

@<TRIPOS>ATOM
      1 C          63.9869   88.9949   15.6057 C.3     1  UNL1        0.0992
      2 C          63.2965   84.5499   15.4825 C.3     1  UNL1        0.0743
      3 C          64.2798   85.1825   14.5430 C.3     1  UNL1        0.0369
      4 C          64.5099   86.6641   14.5840 C.3     1  UNL1        0.0741
      5 N          63.7568   87.5132   15.5646 N.3     1  UNL1       -0.2688
      6 C          62.7734   86.8807   16.5042 C.3     1  UNL1        0.0741
      7 C          62.5433   85.3990   16.4632 C.3     1  UNL1        0.0369
      8 C          62.6024   82.4161   14.1728 C.2     1  UNL1        0.2224
      9 O          62.3687   83.2457   12.9451 O.2     1  UNL1       -0.2751
     10 N          63.0663   83.0682   15.4415 N.am    1  UNL1       -0.3059
     11 H          63.2197   82.5237   16.2473 H       1  UNL1        0.1494
     12 C          62.5826   80.1779   12.8537 C.3     1  UNL1        0.0101
     13 C          62.3723   80.9345   14.1318 C.3     1  UNL1        0.0851
     14 C          64.0150   89.7851   14.3310 C.ar    1  UNL1       -0.0031
     15 C          63.1113   89.4081   13.1947 C.ar    1  UNL1       -0.0027
     16 C          63.1394   90.1983   11.9201 C.ar    1  UNL1        0.0029
     17 C          64.0712   91.3656   11.7817 C.ar    1  UNL1        0.0375
     18 C          64.9749   91.7426   12.9179 C.ar    1  UNL1        0.1450
     19 C          64.9468   90.9524   14.1927 C.ar    1  UNL1        0.0346
     20 O          65.9068   92.9099   12.7796 O.3     1  UNL1       -0.4535
     21 C          66.6379   93.1372   11.4897 C.ar    1  UNL1        0.1453
     22 C          66.4140   94.4010   10.7132 C.ar    1  UNL1        0.0375
     23 C          67.1451   94.6282    9.4234 C.ar    1  UNL1        0.0031
     24 C          68.1001   93.5917    8.9099 C.ar    1  UNL1        0.0002
     25 C          68.3239   92.3279    9.6862 C.ar    1  UNL1        0.0031
     26 C          67.5928   92.1006   10.9762 C.ar    1  UNL1        0.0375
@<TRIPOS>BOND
     1    12    13    1
     2    13     8    1
     3     8     9    2
     4     8    10   am
     5    10     2    1
     6     2     3    1
     7     3     4    1
     8     4     5    1
     9     5     1    1
    10     1    14    1
    11    14    15   ar
    12    15    16   ar
    13    16    17   ar
    14    17    18   ar
    15    18    20    1
    16    20    21    1
    17    21    22   ar
    18    22    23   ar
    19    23    24   ar
    20    24    25   ar
    21    25    26   ar
    22    18    19   ar
    23     5     6    1
    24     6     7    1
    25     7     2    1
    26    19    14   ar
    27    26    21   ar
    28    10    11    1
@<TRIPOS>MOLECULE
*****
 26 28 0 0 0
SMALL
GASTEIGER

@<TRIPOS>ATOM
      1 C          61.2344   89.5893   11.6445 C.3     1  UNL1        0.0992
      2 C          64.9770   91.2732   13.4906 C.3     1  UNL1        0.0743
      3 C          64.1386   90.2929   14.2561 C.3     1  UNL1        0.0369
      4 C          62.8911   89.7316   13.6408 C.3     1  UNL1        0.0741
      5 N          62.4819   90.1506   12.2599 N.3     1  UNL1       -0.2688
      6 C          63.3202   91.1310   11.4943 C.3     1  UNL1        0.0741
      7 C          64.5678   91.6922   12.1097 C.3     1  UNL1        0.0369
      8 C          66.1741   92.4544   15.4709 C.2     1  UNL1        0.2224
      9 O          64.8762   92.5129   16.2206 O.2     1  UNL1       -0.2751
     10 N          66.2245   91.8345   14.1059 N.am    1  UNL1       -0.3059
     11 H          67.0763   91.7961   13.6139 H       1  UNL1        0.1494
     12 C          68.7488   92.3739   15.8091 C.3     1  UNL1        0.0101
     13 C          67.4216   93.0156   16.0862 C.3     1  UNL1        0.0851
     14 C          61.2951   88.3152   10.8554 C.ar    1  UNL1       -0.0031
     15 C          60.4226   88.1384    9.6481 C.ar    1  UNL1       -0.0027
     16 C          60.4834   86.8642    8.8590 C.ar    1  UNL1        0.0029
     17 C          61.4165   85.7668    9.2771 C.ar    1  UNL1        0.0375
     18 C          62.2889   85.9435   10.4844 C.ar    1  UNL1        0.1450
     19 C          62.2283   87.2177   11.2736 C.ar    1  UNL1        0.0346
     20 O          63.2221   84.8461   10.9026 O.3     1  UNL1       -0.4535
     21 C          62.8586   83.9483   12.0479 C.ar    1  UNL1        0.1453
     22 C          62.7658   84.5055   13.4375 C.ar    1  UNL1        0.0375
     23 C          62.4023   83.6077   14.5828 C.ar    1  UNL1        0.0031
     24 C          62.1316   82.1527   14.3386 C.ar    1  UNL1        0.0002
     25 C          62.2244   81.5955   12.9491 C.ar    1  UNL1        0.0031
     26 C          62.5879   82.4933   11.8037 C.ar    1  UNL1        0.0375
@<TRIPOS>BOND
     1    12    13    1
     2    13     8    1
     3     8     9    2
     4     8    10   am
     5    10     2    1
     6     2     3    1
     7     3     4    1
     8     4     5    1
     9     5     1    1
    10     1    14    1
    11    14    15   ar
    12    15    16   ar
    13    16    17   ar
    14    17    18   ar
    15    18    20    1
    16    20    21    1
    17    21    22   ar
    18    22    23   ar
    19    23    24   ar
    20    24    25   ar
    21    25    26   ar
    22    18    19   ar
    23     5     6    1
    24     6     7    1
    25     7     2    1
    26    19    14   ar
    27    26    21   ar
    28    10    11    1
@<TRIPOS>MOLECULE
*****
 26 28 0 0 0
SMALL
GASTEIGER

@<TRIPOS>ATOM
      1 C          62.4035   90.5475   10.6680 C.3     1  UNL1        0.0992
      2 C          65.4260   91.8616   13.7320 C.3     1  UNL1        0.0743
      3 C          65.5099   92.3779   12.3262 C.3     1  UNL1        0.0369
      4 C          64.5025   91.9399   11.3049 C.3     1  UNL1        0.0741
      5 N          63.4110   90.9855   11.6894 N.3     1  UNL1       -0.2688
      6 C          63.3270   90.4692   13.0952 C.3     1  UNL1        0.0741
      7 C          64.3345   90.9072   14.1165 C.3     1  UNL1        0.0369
      8 C          67.8986   92.2298   14.4395 C.2     1  UNL1        0.2224
      9 O          68.3563   91.7220   13.1043 O.2     1  UNL1       -0.2751
     10 N          66.4335   92.2996   14.7533 N.am    1  UNL1       -0.3059
     11 H          66.1331   92.6329   15.6296 H       1  UNL1        0.1494
     12 C          68.9339   94.0947   15.9229 C.3     1  UNL1        0.0101
     13 C          68.9061   92.6679   15.4608 C.3     1  UNL1        0.0851
     14 C          62.0510   89.0954   10.5370 C.ar    1  UNL1       -0.0031
     15 C          61.1285   88.6432    9.4441 C.ar    1  UNL1       -0.0027
     16 C          60.7760   87.1911    9.3130 C.ar    1  UNL1        0.0029
     17 C          61.3460   86.1912   10.2749 C.ar    1  UNL1        0.0375
     18 C          62.2685   86.6433   11.3678 C.ar    1  UNL1        0.1450
     19 C          62.6211   88.0955   11.4989 C.ar    1  UNL1        0.0346
     20 O          62.8386   85.6434   12.3297 O.3     1  UNL1       -0.4535
     21 C          62.9991   84.2109   11.9150 C.ar    1  UNL1        0.1453
     22 C          63.6820   83.8764   10.6219 C.ar    1  UNL1        0.0375
     23 C          63.8425   82.4438   10.2072 C.ar    1  UNL1        0.0031
     24 C          63.3201   81.3457   11.0854 C.ar    1  UNL1        0.0002
     25 C          62.6372   81.6802   12.3784 C.ar    1  UNL1        0.0031
     26 C          62.4767   83.1128   12.7932 C.ar    1  UNL1        0.0375
@<TRIPOS>BOND
     1    12    13    1
     2    13     8    1
     3     8     9    2
     4     8    10   am
     5    10     2    1
     6     2     3    1
     7     3     4    1
     8     4     5    1
     9     5     1    1
    10     1    14    1
    11    14    15   ar
    12    15    16   ar
    13    16    17   ar
    14    17    18   ar
    15    18    20    1
    16    20    21    1
    17    21    22   ar
    18    22    23   ar
    19    23    24   ar
    20    24    25   ar
    21    25    26   ar
    22    18    19   ar
    23     5     6    1
    24     6     7    1
    25     7     2    1
    26    19    14   ar
    27    26    21   ar
    28    10    11    1
@<TRIPOS>MOLECULE
*****
 26 28 0 0 0
SMALL
GASTEIGER

@<TRIPOS>ATOM
      1 C          63.7743   84.0216   11.0608 C.3     1  UNL1        0.0992
      2 C          60.9326   86.3304    8.4447 C.3     1  UNL1        0.0743
      3 C          60.7628   86.3482    9.9350 C.3     1  UNL1        0.0369
      4 C          61.7101   85.5786   10.8070 C.3     1  UNL1        0.0741
      5 N          62.8271   84.7912   10.1888 N.3     1  UNL1       -0.2688
      6 C          62.9969   84.7734    8.6986 C.3     1  UNL1        0.0741
      7 C          62.0496   85.5430    7.8265 C.3     1  UNL1        0.0369
      8 C          59.8371   88.5819    7.7515 C.2     1  UNL1        0.2224
      9 O          60.6362   89.2943    8.8023 O.2     1  UNL1       -0.2751
     10 N          59.9854   87.1000    7.5727 N.am    1  UNL1       -0.3059
     11 H          59.4609   86.6325    6.8830 H       1  UNL1        0.1494
     12 C          59.4223   90.2290    5.7855 C.3     1  UNL1        0.0101
     13 C          58.8899   89.3515    6.8794 C.3     1  UNL1        0.0851
     14 C          63.4253   83.7555   12.4952 C.ar    1  UNL1       -0.0031
     15 C          62.5955   82.5590   12.8556 C.ar    1  UNL1       -0.0027
     16 C          62.2465   82.2929   14.2899 C.ar    1  UNL1        0.0029
     17 C          62.7273   83.2232   15.3639 C.ar    1  UNL1        0.0375
     18 C          63.5571   84.4196   15.0035 C.ar    1  UNL1        0.1450
     19 C          63.9061   84.6858   13.5691 C.ar    1  UNL1        0.0346
     20 O          64.0379   85.3499   16.0774 O.3     1  UNL1       -0.4535
     21 C          63.8725   86.8319   15.9153 C.ar    1  UNL1        0.1453
     22 C          63.1223   87.6202   16.9476 C.ar    1  UNL1        0.0375
     23 C          62.9569   89.1022   16.7854 C.ar    1  UNL1        0.0031
     24 C          63.5417   89.7959   15.5910 C.ar    1  UNL1        0.0002
     25 C          64.2919   89.0076   14.5586 C.ar    1  UNL1        0.0031
     26 C          64.4574   87.5255   14.7208 C.ar    1  UNL1        0.0375
@<TRIPOS>BOND
     1    12    13    1
     2    13     8    1
     3     8     9    2
     4     8    10   am
     5    10     2    1
     6     2     3    1
     7     3     4    1
     8     4     5    1
     9     5     1    1
    10     1    14    1
    11    14    15   ar
    12    15    16   ar
    13    16    17   ar
    14    17    18   ar
    15    18    20    1
    16    20    21    1
    17    21    22   ar
    18    22    23   ar
    19    23    24   ar
    20    24    25   ar
    21    25    26   ar
    22    18    19   ar
    23     5     6    1
    24     6     7    1
    25     7     2    1
    26    19    14   ar
    27    26    21   ar
    28    10    11    1
