@<TRIPOS>MOLECULE
*****
 24 26 0 0 0
SMALL
GASTEIGER

@<TRIPOS>ATOM
      1 C          61.4323   88.1920   10.8825 C.ar    1  UNL1       -0.0157
      2 C          62.2203   86.9708   11.2534 C.ar    1  UNL1        0.0050
      3 S          62.0050   85.9385   10.1866 S.2     1  UNL1       -0.0915
      4 C          61.0839   86.5218    9.1564 C.ar    1  UNL1        0.0288
      5 C          60.5217   85.9646    7.8822 C.ar    1  UNL1        0.0065
      6 C          59.6056   86.8002    7.0382 C.ar    1  UNL1        0.0005
      7 C          59.2516   88.1929    7.4683 C.ar    1  UNL1        0.0000
      8 C          59.8138   88.7501    8.7424 C.ar    1  UNL1        0.0002
      9 C          60.7299   87.9145    9.5865 C.ar    1  UNL1        0.0025
     10 C          61.3593   89.4669   11.6695 C.3     1  UNL1        0.0493
     11 C          60.0727   89.8697   12.3272 C.3     1  UNL1        0.0096
     12 C          63.2188   90.5316   13.1387 C.ar    1  UNL1        0.2210
     13 N          64.4323   91.4037   13.2679 N.ar    1  UNL1       -0.2104
     14 C          64.9999   92.0833   12.0571 C.ar    1  UNL1        0.1020
     15 C          64.3539   91.8908   10.7171 C.ar    1  UNL1        0.0206
     16 C          63.1404   91.0187   10.5879 C.ar    1  UNL1        0.0022
     17 C          62.5728   90.3390   11.7987 C.ar    1  UNL1        0.0347
     18 C          63.4402   89.8096   15.6246 C.3     1  UNL1        0.2542
     19 O          62.6513   89.8520   14.3495 O.3     1  UNL1       -0.4563
     20 C          63.0738   86.8100   12.4764 C.3     1  UNL1        0.0499
     21 C          63.3350   85.4424   13.0343 C.3     1  UNL1        0.0774
     22 N          63.2866   85.2150   14.5161 N.3     1  UNL1       -0.2700
     23 C          62.3868   84.1574   15.0837 C.3     1  UNL1        0.0897
     24 C          64.1379   86.0452   15.4305 C.3     1  UNL1        0.0897
@<TRIPOS>BOND
     1    18    19    1
     2    19    12    1
     3    12    13   ar
     4    13    14   ar
     5    14    15   ar
     6    15    16   ar
     7    16    17   ar
     8    17    10    1
     9    10    11    1
    10    10     1    1
    11     1     2   ar
    12     2    20    1
    13    20    21    1
    14    21    22    1
    15    22    23    1
    16    22    24    1
    17     2     3   ar
    18     3     4   ar
    19     4     5   ar
    20     5     6   ar
    21     6     7   ar
    22     7     8   ar
    23     8     9   ar
    24    17    12   ar
    25     9     1   ar
    26     9     4   ar
@<TRIPOS>MOLECULE
*****
 24 26 0 0 0
SMALL
GASTEIGER

@<TRIPOS>ATOM
      1 C          63.5377   86.4462   13.2257 C.ar    1  UNL1       -0.0157
      2 C          63.1486   85.0333   12.9057 C.ar    1  UNL1        0.0050
      3 S          62.3434   85.0497   11.6402 S.2     1  UNL1       -0.0915
      4 C          62.2349   86.4726   11.1782 C.ar    1  UNL1        0.0288
      5 C          61.5593   87.0938    9.9918 C.ar    1  UNL1        0.0065
      6 C          61.6218   88.5782    9.7853 C.ar    1  UNL1        0.0005
      7 C          62.3599   89.4413   10.7652 C.ar    1  UNL1        0.0000
      8 C          63.0355   88.8201   11.9516 C.ar    1  UNL1        0.0002
      9 C          62.9730   87.3357   12.1581 C.ar    1  UNL1        0.0025
     10 C          64.3491   86.8914   14.4061 C.3     1  UNL1        0.0493
     11 C          65.3873   85.9793   14.9896 C.3     1  UNL1        0.0096
     12 C          63.1867   88.4105   16.1643 C.ar    1  UNL1        0.2210
     13 N          62.9600   89.7678   16.7613 N.ar    1  UNL1       -0.2104
     14 C          63.6690   90.9632   16.1972 C.ar    1  UNL1        0.1020
     15 C          64.6047   90.8014   15.0361 C.ar    1  UNL1        0.0206
     16 C          64.8314   89.4441   14.4391 C.ar    1  UNL1        0.0022
     17 C          64.1224   88.2486   15.0032 C.ar    1  UNL1        0.0347
     18 C          62.7740   86.7577   18.1259 C.3     1  UNL1        0.2542
     19 O          62.4776   87.2151   16.7284 O.3     1  UNL1       -0.4563
     20 C          63.5026   83.8176   13.7099 C.3     1  UNL1        0.0499
     21 C          62.4173   82.9542   14.2813 C.3     1  UNL1        0.0774
     22 N          62.0506   81.6657   13.6066 N.3     1  UNL1       -0.2700
     23 C          62.8502   81.1787   12.4346 C.3     1  UNL1        0.0897
     24 C          60.8843   80.8642   14.1038 C.3     1  UNL1        0.0897
@<TRIPOS>BOND
     1    18    19    1
     2    19    12    1
     3    12    13   ar
     4    13    14   ar
     5    14    15   ar
     6    15    16   ar
     7    16    17   ar
     8    17    10    1
     9    10    11    1
    10    10     1    1
    11     1     2   ar
    12     2    20    1
    13    20    21    1
    14    21    22    1
    15    22    23    1
    16    22    24    1
    17     2     3   ar
    18     3     4   ar
    19     4     5   ar
    20     5     6   ar
    21     6     7   ar
    22     7     8   ar
    23     8     9   ar
    24    17    12   ar
    25     9     1   ar
    26     9     4   ar
@<TRIPOS>MOLECULE
*****
 24 26 0 0 0
SMALL
GASTEIGER

@<TRIPOS>ATOM
      1 C          63.5285   87.1385   13.0627 C.ar    1  UNL1       -0.0157
      2 C          63.6720   88.6189   13.2570 C.ar    1  UNL1        0.0050
      3 S          62.9589   89.3055   12.1300 S.2     1  UNL1       -0.0915
      4 C          62.3746   88.2494   11.2393 C.ar    1  UNL1        0.0288
      5 C          61.5676   88.3344    9.9778 C.ar    1  UNL1        0.0065
      6 C          61.1126   87.0799    9.2927 C.ar    1  UNL1        0.0005
      7 C          61.4646   85.7406    9.8692 C.ar    1  UNL1        0.0000
      8 C          62.2717   85.6557   11.1306 C.ar    1  UNL1        0.0002
      9 C          62.7267   86.9101   11.8157 C.ar    1  UNL1        0.0025
     10 C          64.0885   86.0733   13.9582 C.3     1  UNL1        0.0493
     11 C          65.0877   86.4331   15.0177 C.3     1  UNL1        0.0096
     12 C          62.4786   84.1298   14.5754 C.ar    1  UNL1        0.2210
     13 N          62.0396   82.7049   14.4115 N.ar    1  UNL1       -0.2104
     14 C          62.7714   81.7986   13.4665 C.ar    1  UNL1        0.1020
     15 C          63.9423   82.3172   12.6854 C.ar    1  UNL1        0.0206
     16 C          64.3813   83.7421   12.8493 C.ar    1  UNL1        0.0022
     17 C          63.6495   84.6485   13.7943 C.ar    1  UNL1        0.0347
     18 C          62.3394   85.3593   16.8600 C.3     1  UNL1        0.2542
     19 O          61.7467   85.0361   15.5204 O.3     1  UNL1       -0.4563
     20 C          64.4007   89.2941   14.3808 C.3     1  UNL1        0.0499
     21 C          64.1345   90.7382   14.6869 C.3     1  UNL1        0.0774
     22 N          65.1557   91.7797   14.3369 N.3     1  UNL1       -0.2700
     23 C          65.3544   92.1843   12.9062 C.3     1  UNL1        0.0897
     24 C          65.9781   92.4166   15.4176 C.3     1  UNL1        0.0897
@<TRIPOS>BOND
     1    18    19    1
     2    19    12    1
     3    12    13   ar
     4    13    14   ar
     5    14    15   ar
     6    15    16   ar
     7    16    17   ar
     8    17    10    1
     9    10    11    1
    10    10     1    1
    11     1     2   ar
    12     2    20    1
    13    20    21    1
    14    21    22    1
    15    22    23    1
    16    22    24    1
    17     2     3   ar
    18     3     4   ar
    19     4     5   ar
    20     5     6   ar
    21     6     7   ar
    22     7     8   ar
    23     8     9   ar
    24    17    12   ar
    25     9     1   ar
    26     9     4   ar
@<TRIPOS>MOLECULE
*****
 24 26 0 0 0
SMALL
GASTEIGER

@<TRIPOS>ATOM
      1 C          63.3793   88.5888   12.6309 C.ar    1  UNL1       -0.0157
      2 C          63.9456   89.4252   13.7398 C.ar    1  UNL1        0.0050
      3 S          64.4102   88.5013   14.8263 S.2     1  UNL1       -0.0915
      4 C          64.1310   87.0939   14.3889 C.ar    1  UNL1        0.0288
      5 C          64.3746   85.7701   15.0509 C.ar    1  UNL1        0.0065
      6 C          63.9811   84.5004   14.3560 C.ar    1  UNL1        0.0005
      7 C          63.3439   84.5545   12.9991 C.ar    1  UNL1        0.0000
      8 C          63.1003   85.8782   12.3371 C.ar    1  UNL1        0.0002
      9 C          63.4938   87.1479   13.0321 C.ar    1  UNL1        0.0025
     10 C          62.8000   89.1029   11.3463 C.3     1  UNL1        0.0493
     11 C          63.1019   90.5009   10.8939 C.3     1  UNL1        0.0096
     12 C          60.4410   88.1814   10.7668 C.ar    1  UNL1        0.2210
     13 N          59.5600   87.2976    9.9345 N.ar    1  UNL1       -0.2104
     14 C          60.1570   86.4515    8.8494 C.ar    1  UNL1        0.1020
     15 C          61.6351   86.4891    8.5964 C.ar    1  UNL1        0.0206
     16 C          62.5161   87.3730    9.4288 C.ar    1  UNL1        0.0022
     17 C          61.9190   88.2191   10.5140 C.ar    1  UNL1        0.0347
     18 C          59.3659   90.4154   11.5435 C.3     1  UNL1        0.2542
     19 O          59.8439   89.0275   11.8520 O.3     1  UNL1       -0.4563
     20 C          64.0321   90.9226   13.7588 C.3     1  UNL1        0.0499
     21 C          65.2185   91.5974   14.3809 C.3     1  UNL1        0.0774
     22 N          65.8782   92.7490   13.6820 N.3     1  UNL1       -0.2700
     23 C          65.6310   92.9807   12.2207 C.3     1  UNL1        0.0897
     24 C          66.7851   93.6690   14.4443 C.3     1  UNL1        0.0897
@<TRIPOS>BOND
     1    18    19    1
     2    19    12    1
     3    12    13   ar
     4    13    14   ar
     5    14    15   ar
     6    15    16   ar
     7    16    17   ar
     8    17    10    1
     9    10    11    1
    10    10     1    1
    11     1     2   ar
    12     2    20    1
    13    20    21    1
    14    21    22    1
    15    22    23    1
    16    22    24    1
    17     2     3   ar
    18     3     4   ar
    19     4     5   ar
    20     5     6   ar
    21     6     7   ar
    22     7     8   ar
    23     8     9   ar
    24    17    12   ar
    25     9     1   ar
    26     9     4   ar
@<TRIPOS>MOLECULE
*****
 24 26 0 0 0
SMALL
GASTEIGER

@<TRIPOS>ATOM
      1 C          62.2783   88.9426   11.2018 C.ar    1  UNL1       -0.0157
      2 C          62.2100   90.0405   10.1820 C.ar    1  UNL1        0.0050
      3 S          63.0984   91.1575   10.6433 S.2     1  UNL1       -0.0915
      4 C          63.7158   90.7501   11.9482 C.ar    1  UNL1        0.0288
      5 C          64.6740   91.4487   12.8667 C.ar    1  UNL1        0.0065
      6 C          65.1254   90.7785   14.1304 C.ar    1  UNL1        0.0005
      7 C          64.6185   89.4095   14.4756 C.ar    1  UNL1        0.0000
      8 C          63.6603   88.7109   13.5571 C.ar    1  UNL1        0.0002
      9 C          63.2090   89.3812   12.2934 C.ar    1  UNL1        0.0025
     10 C          61.5448   87.6356   11.1408 C.3     1  UNL1        0.0493
     11 C          60.1373   87.5409   11.6508 C.3     1  UNL1        0.0096
     12 C          62.6612   85.3139   11.4771 C.ar    1  UNL1        0.2210
     13 N          63.3351   84.1016   10.9060 N.ar    1  UNL1       -0.2104
     14 C          63.5664   83.9986    9.4276 C.ar    1  UNL1        0.1020
     15 C          63.1239   85.1080    8.5201 C.ar    1  UNL1        0.0206
     16 C          62.4500   86.3203    9.0912 C.ar    1  UNL1        0.0022
     17 C          62.2186   86.4233   10.5698 C.ar    1  UNL1        0.0347
     18 C          63.4889   84.9588   13.9141 C.3     1  UNL1        0.2542
     19 O          62.4299   85.4168   12.9556 O.3     1  UNL1       -0.4563
     20 C          61.3961   90.0241    8.9221 C.3     1  UNL1        0.0499
     21 C          60.0249   89.4161    8.9228 C.3     1  UNL1        0.0774
     22 N          59.5007   88.7467    7.6870 N.3     1  UNL1       -0.2700
     23 C          59.1320   87.2930    7.7205 C.3     1  UNL1        0.0897
     24 C          59.3451   89.5308    6.4178 C.3     1  UNL1        0.0897
@<TRIPOS>BOND
     1    18    19    1
     2    19    12    1
     3    12    13   ar
     4    13    14   ar
     5    14    15   ar
     6    15    16   ar
     7    16    17   ar
     8    17    10    1
     9    10    11    1
    10    10     1    1
    11     1     2   ar
    12     2    20    1
    13    20    21    1
    14    21    22    1
    15    22    23    1
    16    22    24    1
    17     2     3   ar
    18     3     4   ar
    19     4     5   ar
    20     5     6   ar
    21     6     7   ar
    22     7     8   ar
    23     8     9   ar
    24    17    12   ar
    25     9     1   ar
    26     9     4   ar
@<TRIPOS>MOLECULE
*****
 24 26 0 0 0
SMALL
GASTEIGER

@<TRIPOS>ATOM
      1 C          61.3034   88.4328   10.4534 C.ar    1  UNL1       -0.0157
      2 C          60.7122   88.2922    9.0820 C.ar    1  UNL1        0.0050
      3 S          60.9620   86.8901    8.6110 S.2     1  UNL1       -0.0915
      4 C          61.7075   86.1642    9.6914 C.ar    1  UNL1        0.0288
      5 C          62.2215   84.7581    9.7854 C.ar    1  UNL1        0.0065
      6 C          62.9465   84.3055   11.0181 C.ar    1  UNL1        0.0005
      7 C          63.1575   85.2590   12.1567 C.ar    1  UNL1        0.0000
      8 C          62.6435   86.6650   12.0627 C.ar    1  UNL1        0.0002
      9 C          61.9185   87.1176   10.8300 C.ar    1  UNL1        0.0025
     10 C          61.2830   89.6711   11.2996 C.3     1  UNL1        0.0493
     11 C          60.0085   90.1077   11.9595 C.3     1  UNL1        0.0096
     12 C          63.2126   90.5080   12.8247 C.ar    1  UNL1        0.2210
     13 N          64.4665   91.3099   13.0110 N.ar    1  UNL1       -0.2104
     14 C          65.0447   92.0766   11.8587 C.ar    1  UNL1        0.1020
     15 C          64.3690   92.0415   10.5200 C.ar    1  UNL1        0.0206
     16 C          63.1150   91.2397   10.3337 C.ar    1  UNL1        0.0022
     17 C          62.5368   90.4729   11.4860 C.ar    1  UNL1        0.0347
     18 C          63.3613   89.6970   15.2884 C.3     1  UNL1        0.2542
     19 O          62.6345   89.7413   13.9770 O.3     1  UNL1       -0.4563
     20 C          59.9968   89.3653    8.3160 C.3     1  UNL1        0.0499
     21 C          59.3722   89.0502    6.9891 C.3     1  UNL1        0.0774
     22 N          59.2136   90.1295    5.9596 N.3     1  UNL1       -0.2700
     23 C          60.4210   90.6888    5.2672 C.3     1  UNL1        0.0897
     24 C          57.8477   90.6496    5.6225 C.3     1  UNL1        0.0897
@<TRIPOS>BOND
     1    18    19    1
     2    19    12    1
     3    12    13   ar
     4    13    14   ar
     5    14    15   ar
     6    15    16   ar
     7    16    17   ar
     8    17    10    1
     9    10    11    1
    10    10     1    1
    11     1     2   ar
    12     2    20    1
    13    20    21    1
    14    21    22    1
    15    22    23    1
    16    22    24    1
    17     2     3   ar
    18     3     4   ar
    19     4     5   ar
    20     5     6   ar
    21     6     7   ar
    22     7     8   ar
    23     8     9   ar
    24    17    12   ar
    25     9     1   ar
    26     9     4   ar
@<TRIPOS>MOLECULE
*****
 24 26 0 0 0
SMALL
GASTEIGER

@<TRIPOS>ATOM
      1 C          63.8291   85.2392   13.3551 C.ar    1  UNL1       -0.0157
      2 C          63.0522   85.8948   12.2521 C.ar    1  UNL1        0.0050
      3 S          62.3511   84.8192   11.4764 S.2     1  UNL1       -0.0915
      4 C          62.6948   83.4989   12.1001 C.ar    1  UNL1        0.0288
      5 C          62.2940   82.0939   11.7607 C.ar    1  UNL1        0.0065
      6 C          62.8066   80.9486   12.5824 C.ar    1  UNL1        0.0005
      7 C          63.7201   81.2082   13.7435 C.ar    1  UNL1        0.0000
      8 C          64.1209   82.6132   14.0829 C.ar    1  UNL1        0.0002
      9 C          63.6083   83.7586   13.2612 C.ar    1  UNL1        0.0025
     10 C          64.6780   85.9412   14.3733 C.3     1  UNL1        0.0493
     11 C          66.0388   85.4081   14.7113 C.3     1  UNL1        0.0096
     12 C          63.3940   87.0615   16.3346 C.ar    1  UNL1        0.2210
     13 N          62.8822   88.2965   17.0148 N.ar    1  UNL1       -0.2104
     14 C          63.1424   89.6461   16.4143 C.ar    1  UNL1        0.1020
     15 C          63.9145   89.7608   15.1333 C.ar    1  UNL1        0.0206
     16 C          64.4264   88.5258   14.4530 C.ar    1  UNL1        0.0022
     17 C          64.1661   87.1761   15.0536 C.ar    1  UNL1        0.0347
     18 C          62.0637   84.8300   16.3631 C.3     1  UNL1        0.2542
     19 O          63.1338   85.7119   16.9352 O.3     1  UNL1       -0.4563
     20 C          62.9877   87.3673   11.9736 C.3     1  UNL1        0.0499
     21 C          61.9440   87.9095   11.0426 C.3     1  UNL1        0.0774
     22 N          61.6167   89.3733   11.0537 N.3     1  UNL1       -0.2700
     23 C          60.3231   89.8570   10.4682 C.3     1  UNL1        0.0897
     24 C          62.5829   90.3534   11.6501 C.3     1  UNL1        0.0897
@<TRIPOS>BOND
     1    18    19    1
     2    19    12    1
     3    12    13   ar
     4    13    14   ar
     5    14    15   ar
     6    15    16   ar
     7    16    17   ar
     8    17    10    1
     9    10    11    1
    10    10     1    1
    11     1     2   ar
    12     2    20    1
    13    20    21    1
    14    21    22    1
    15    22    23    1
    16    22    24    1
    17     2     3   ar
    18     3     4   ar
    19     4     5   ar
    20     5     6   ar
    21     6     7   ar
    22     7     8   ar
    23     8     9   ar
    24    17    12   ar
    25     9     1   ar
    26     9     4   ar
@<TRIPOS>MOLECULE
*****
 24 26 0 0 0
SMALL
GASTEIGER

@<TRIPOS>ATOM
      1 C          62.8464   86.7453   12.0335 C.ar    1  UNL1       -0.0157
      2 C          63.5481   87.4688   13.1444 C.ar    1  UNL1        0.0050
      3 S          64.1002   86.4432   14.0895 S.2     1  UNL1       -0.0915
      4 C          63.7397   85.0858   13.5628 C.ar    1  UNL1        0.0288
      5 C          64.0169   83.7039   14.0761 C.ar    1  UNL1        0.0065
      6 C          63.5192   82.5087   13.3187 C.ar    1  UNL1        0.0005
      7 C          62.7443   82.6954   12.0480 C.ar    1  UNL1        0.0000
      8 C          62.4670   84.0772   11.5347 C.ar    1  UNL1        0.0002
      9 C          62.9647   85.2725   12.2921 C.ar    1  UNL1        0.0025
     10 C          62.1487   87.3826   10.8686 C.3     1  UNL1        0.0493
     11 C          62.4366   86.9127    9.4734 C.3     1  UNL1        0.0096
     12 C          61.4966   89.8902   10.6779 C.ar    1  UNL1        0.2210
     13 N          60.5109   90.9972   10.9080 N.ar    1  UNL1       -0.2104
     14 C          59.1918   90.7037   11.5589 C.ar    1  UNL1        0.1020
     15 C          58.8583   89.3031   11.9797 C.ar    1  UNL1        0.0206
     16 C          59.8439   88.1961   11.7496 C.ar    1  UNL1        0.0022
     17 C          61.1631   88.4896   11.0987 C.ar    1  UNL1        0.0347
     18 C          63.4856   91.5068   10.2529 C.3     1  UNL1        0.2542
     19 O          62.8157   90.1838   10.0270 O.3     1  UNL1       -0.4563
     20 C          63.6754   88.9568   13.2853 C.3     1  UNL1        0.0499
     21 C          64.5537   89.5365   14.3542 C.3     1  UNL1        0.0774
     22 N          63.9432   90.0957   15.6050 N.3     1  UNL1       -0.2700
     23 C          63.0989   89.2207   16.4835 C.3     1  UNL1        0.0897
     24 C          64.1769   91.5298   15.9774 C.3     1  UNL1        0.0897
@<TRIPOS>BOND
     1    18    19    1
     2    19    12    1
     3    12    13   ar
     4    13    14   ar
     5    14    15   ar
     6    15    16   ar
     7    16    17   ar
     8    17    10    1
     9    10    11    1
    10    10     1    1
    11     1     2   ar
    12     2    20    1
    13    20    21    1
    14    21    22    1
    15    22    23    1
    16    22    24    1
    17     2     3   ar
    18     3     4   ar
    19     4     5   ar
    20     5     6   ar
    21     6     7   ar
    22     7     8   ar
    23     8     9   ar
    24    17    12   ar
    25     9     1   ar
    26     9     4   ar
@<TRIPOS>MOLECULE
*****
 24 26 0 0 0
SMALL
GASTEIGER

@<TRIPOS>ATOM
      1 C          62.6867   84.0787   12.8215 C.ar    1  UNL1       -0.0157
      2 C          62.3169   83.8642   14.2592 C.ar    1  UNL1        0.0050
      3 S          62.2040   82.3870   14.4934 S.2     1  UNL1       -0.0915
      4 C          62.5040   81.6884   13.2003 C.ar    1  UNL1        0.0288
      5 C          62.5441   80.2353   12.8303 C.ar    1  UNL1        0.0065
      6 C          62.8825   79.8278   11.4270 C.ar    1  UNL1        0.0005
      7 C          63.1808   80.8734   10.3937 C.ar    1  UNL1        0.0000
      8 C          63.1408   82.3265   10.7637 C.ar    1  UNL1        0.0002
      9 C          62.8024   82.7340   12.1670 C.ar    1  UNL1        0.0025
     10 C          62.9029   85.4050   12.1551 C.3     1  UNL1        0.0493
     11 C          63.6455   86.4929   12.8730 C.3     1  UNL1        0.0096
     12 C          61.1797   86.5239   10.5649 C.ar    1  UNL1        0.2210
     13 N          60.6535   86.7625    9.1807 N.ar    1  UNL1       -0.2104
     14 C          61.3241   86.1208    8.0024 C.ar    1  UNL1        0.1020
     15 C          62.5211   85.2405    8.2083 C.ar    1  UNL1        0.0206
     16 C          63.0473   85.0019    9.5925 C.ar    1  UNL1        0.0022
     17 C          62.3767   85.6436   10.7709 C.ar    1  UNL1        0.0347
     18 C          59.8387   88.4988   11.5903 C.3     1  UNL1        0.2542
     19 O          60.5090   87.1657   11.7432 O.3     1  UNL1       -0.4563
     20 C          62.0984   84.9385   15.2831 C.3     1  UNL1        0.0499
     21 C          63.2604   85.4795   16.0623 C.3     1  UNL1        0.0774
     22 N          63.1038   86.7352   16.8677 N.3     1  UNL1       -0.2700
     23 C          62.6564   86.6582   18.2974 C.3     1  UNL1        0.0897
     24 C          63.3946   88.0677   16.2436 C.3     1  UNL1        0.0897
@<TRIPOS>BOND
     1    18    19    1
     2    19    12    1
     3    12    13   ar
     4    13    14   ar
     5    14    15   ar
     6    15    16   ar
     7    16    17   ar
     8    17    10    1
     9    10    11    1
    10    10     1    1
    11     1     2   ar
    12     2    20    1
    13    20    21    1
    14    21    22    1
    15    22    23    1
    16    22    24    1
    17     2     3   ar
    18     3     4   ar
    19     4     5   ar
    20     5     6   ar
    21     6     7   ar
    22     7     8   ar
    23     8     9   ar
    24    17    12   ar
    25     9     1   ar
    26     9     4   ar
