@<TRIPOS>MOLECULE
*****
 29 31 0 0 0
SMALL
GASTEIGER

@<TRIPOS>ATOM
      1 C          60.3656   86.3550    7.9243 C.2     1  UNL1        0.2296
      2 O          60.5252   85.2334    6.9411 O.2     1  UNL1       -0.2745
      3 N          61.4711   86.6708    8.8878 N.am    1  UNL1       -0.2543
      4 C          61.3114   87.7924    9.8709 C.ar    1  UNL1        0.0565
      5 C          60.0641   87.8930   10.6979 C.ar    1  UNL1        0.0445
      6 C          59.9045   89.0146   11.6810 C.ar    1  UNL1        0.1415
      7 F          58.6571   89.1153   12.5081 F       1  UNL1       -0.2041
      8 C          60.9923   90.0356   11.8371 C.ar    1  UNL1        0.0328
      9 C          62.2396   89.9350   11.0101 C.ar    1  UNL1        0.0406
     10 C          62.3992   88.8134   10.0270 C.ar    1  UNL1        0.0181
     11 C          63.3274   90.9560   11.1662 C.ar    1  UNL1        0.1807
     12 N          64.1198   91.2166   12.4129 N.ar    1  UNL1       -0.1083
     13 N          65.0959   92.3173   12.1202 N.ar    1  UNL1       -0.0229
     14 N          64.9067   92.7370   10.6926 N.ar    1  UNL1       -0.0464
     15 N          63.8138   91.8957   10.1030 N.ar    1  UNL1       -0.2388
     16 H          63.4751   91.9506    9.1802 H       1  UNL1        0.1923
     17 C          59.0398   88.4789    7.2304 C.3     1  UNL1        0.0101
     18 C          59.1006   87.1609    7.9439 C.3     1  UNL1        0.0856
     19 C          62.7360   85.8650    8.8681 C.3     1  UNL1        0.1247
     20 C          62.9714   84.8128    9.9111 C.ar    1  UNL1       -0.0020
     21 C          63.7821   83.5954    9.5786 C.ar    1  UNL1       -0.0027
     22 C          64.0173   82.5433   10.6215 C.ar    1  UNL1        0.0036
     23 C          63.4419   82.7086   11.9969 C.ar    1  UNL1        0.0714
     24 C          62.6312   83.9260   12.3293 C.ar    1  UNL1        0.0036
     25 C          62.3959   84.9781   11.2864 C.ar    1  UNL1       -0.0027
     26 C          63.6772   81.6564   13.0398 C.3     1  UNL1        0.4186
     27 F          63.9125   80.6043   14.0827 F       1  UNL1       -0.1659
     28 F          63.0333   80.6328   12.1524 F       1  UNL1       -0.1659
     29 F          64.3210   82.6801   13.9272 F       1  UNL1       -0.1659
@<TRIPOS>BOND
     1    17    18    1
     2    18     1    1
     3     1     2    2
     4     1     3   am
     5     3    19    1
     6    19    20    1
     7    20    21   ar
     8    21    22   ar
     9    22    23   ar
    10    23    26    1
    11    26    27    1
    12    26    28    1
    13    26    29    1
    14    23    24   ar
    15    24    25   ar
    16     3     4    1
    17     4     5   ar
    18     5     6   ar
    19     6     7    1
    20     6     8   ar
    21     8     9   ar
    22     9    11    1
    23    11    12   ar
    24    12    13   ar
    25    13    14   ar
    26    14    15   ar
    27     9    10   ar
    28    25    20   ar
    29    10     4   ar
    30    15    11   ar
    31    15    16    1
@<TRIPOS>MOLECULE
*****
 29 31 0 0 0
SMALL
GASTEIGER

@<TRIPOS>ATOM
      1 C          60.1883   88.3809    9.9890 C.2     1  UNL1        0.2296
      2 O          59.4092   87.3538    9.2222 O.2     1  UNL1       -0.2745
      3 N          61.6837   88.2880   10.0612 N.am    1  UNL1       -0.2543
      4 C          62.4628   89.3152   10.8280 C.ar    1  UNL1        0.0565
      5 C          63.1875   90.4063   10.0971 C.ar    1  UNL1        0.0445
      6 C          63.9666   91.4335   10.8639 C.ar    1  UNL1        0.1415
      7 F          64.6913   92.5247   10.1330 F       1  UNL1       -0.2041
      8 C          64.0209   91.3696   12.3615 C.ar    1  UNL1        0.0328
      9 C          63.2962   90.2785   13.0924 C.ar    1  UNL1        0.0406
     10 C          62.5171   89.2513   12.3256 C.ar    1  UNL1        0.0181
     11 C          63.3505   90.2145   14.5901 C.ar    1  UNL1        0.1807
     12 N          63.5863   91.3724   15.5140 N.ar    1  UNL1       -0.1083
     13 N          63.5601   90.8550   16.9217 N.ar    1  UNL1       -0.0229
     14 N          63.3081   89.3773   16.8678 N.ar    1  UNL1       -0.0464
     15 N          63.1785   88.9815   15.4267 N.ar    1  UNL1       -0.2388
     16 H          63.0102   88.0721   15.0893 H       1  UNL1        0.1923
     17 C          59.0464   89.3466   12.1135 C.3     1  UNL1        0.0101
     18 C          59.4721   89.5011   10.6835 C.3     1  UNL1        0.0856
     19 C          62.4000   87.1679    9.3668 C.3     1  UNL1        0.1247
     20 C          62.6503   85.8765   10.0878 C.ar    1  UNL1       -0.0020
     21 C          63.3154   84.7364    9.3752 C.ar    1  UNL1       -0.0027
     22 C          63.5656   83.4451   10.0962 C.ar    1  UNL1        0.0036
     23 C          63.1509   83.2940   11.5298 C.ar    1  UNL1        0.0714
     24 C          62.4859   84.4341   12.2423 C.ar    1  UNL1        0.0036
     25 C          62.2356   85.7254   11.5213 C.ar    1  UNL1       -0.0027
     26 C          63.4012   82.0026   12.2508 C.3     1  UNL1        0.4186
     27 F          63.6516   80.7113   12.9717 F       1  UNL1       -0.1659
     28 F          61.9229   81.8043   12.4090 F       1  UNL1       -0.1659
     29 F          64.8796   82.2009   12.0926 F       1  UNL1       -0.1659
@<TRIPOS>BOND
     1    17    18    1
     2    18     1    1
     3     1     2    2
     4     1     3   am
     5     3    19    1
     6    19    20    1
     7    20    21   ar
     8    21    22   ar
     9    22    23   ar
    10    23    26    1
    11    26    27    1
    12    26    28    1
    13    26    29    1
    14    23    24   ar
    15    24    25   ar
    16     3     4    1
    17     4     5   ar
    18     5     6   ar
    19     6     7    1
    20     6     8   ar
    21     8     9   ar
    22     9    11    1
    23    11    12   ar
    24    12    13   ar
    25    13    14   ar
    26    14    15   ar
    27     9    10   ar
    28    25    20   ar
    29    10     4   ar
    30    15    11   ar
    31    15    16    1
@<TRIPOS>MOLECULE
*****
 29 31 0 0 0
SMALL
GASTEIGER

@<TRIPOS>ATOM
      1 C          60.3699   88.8693    9.8568 C.2     1  UNL1        0.2296
      2 O          59.7880   90.2188   10.1566 O.2     1  UNL1       -0.2745
      3 N          61.4254   88.2917   10.7525 N.am    1  UNL1       -0.2543
      4 C          62.0073   86.9421   10.4526 C.ar    1  UNL1        0.0565
      5 C          62.3600   86.5740    9.0419 C.ar    1  UNL1        0.0445
      6 C          62.9418   85.2244    8.7421 C.ar    1  UNL1        0.1415
      7 F          63.2945   84.8563    7.3313 F       1  UNL1       -0.2041
      8 C          63.1710   84.2428    9.8530 C.ar    1  UNL1        0.0328
      9 C          62.8184   84.6109   11.2637 C.ar    1  UNL1        0.0406
     10 C          62.2365   85.9605   11.5635 C.ar    1  UNL1        0.0181
     11 C          63.0476   83.6293   12.3745 C.ar    1  UNL1        0.1807
     12 N          62.6861   83.8295   13.8165 N.ar    1  UNL1       -0.1083
     13 N          63.0936   82.5991   14.5716 N.ar    1  UNL1       -0.0229
     14 N          63.7070   81.6386   13.5964 N.ar    1  UNL1       -0.0464
     15 N          63.6785   82.2753   12.2385 N.ar    1  UNL1       -0.2388
     16 H          64.0149   81.8748   11.4044 H       1  UNL1        0.1923
     17 C          59.4534   88.8241    7.4261 C.3     1  UNL1        0.0101
     18 C          59.8963   88.0971    8.6611 C.3     1  UNL1        0.0856
     19 C          61.8990   89.0638   11.9481 C.3     1  UNL1        0.1247
     20 C          62.9214   90.1491   11.7833 C.ar    1  UNL1       -0.0020
     21 C          63.7731   90.5603   12.9476 C.ar    1  UNL1       -0.0027
     22 C          64.7954   91.6454   12.7827 C.ar    1  UNL1        0.0036
     23 C          64.9660   92.3194   11.4535 C.ar    1  UNL1        0.0714
     24 C          64.1144   91.9082   10.2893 C.ar    1  UNL1        0.0036
     25 C          63.0921   90.8230   10.4541 C.ar    1  UNL1       -0.0027
     26 C          65.9884   93.4046   11.2887 C.3     1  UNL1        0.4186
     27 F          67.0107   94.4898   11.1238 F       1  UNL1       -0.1659
     28 F          65.8464   93.7588   12.7393 F       1  UNL1       -0.1659
     29 F          66.1304   93.0505    9.8381 F       1  UNL1       -0.1659
@<TRIPOS>BOND
     1    17    18    1
     2    18     1    1
     3     1     2    2
     4     1     3   am
     5     3    19    1
     6    19    20    1
     7    20    21   ar
     8    21    22   ar
     9    22    23   ar
    10    23    26    1
    11    26    27    1
    12    26    28    1
    13    26    29    1
    14    23    24   ar
    15    24    25   ar
    16     3     4    1
    17     4     5   ar
    18     5     6   ar
    19     6     7    1
    20     6     8   ar
    21     8     9   ar
    22     9    11    1
    23    11    12   ar
    24    12    13   ar
    25    13    14   ar
    26    14    15   ar
    27     9    10   ar
    28    25    20   ar
    29    10     4   ar
    30    15    11   ar
    31    15    16    1
@<TRIPOS>MOLECULE
*****
 29 31 0 0 0
SMALL
GASTEIGER

@<TRIPOS>ATOM
      1 C          60.3223   89.7082   11.1929 C.2     1  UNL1        0.2296
      2 O          59.9384   91.1558   11.2776 O.2     1  UNL1       -0.2745
      3 N          61.6522   89.3173   10.6199 N.am    1  UNL1       -0.2543
      4 C          62.0361   87.8696   10.5352 C.ar    1  UNL1        0.0565
      5 C          62.0578   87.1760    9.2054 C.ar    1  UNL1        0.0445
      6 C          62.4417   85.7285    9.1208 C.ar    1  UNL1        0.1415
      7 F          62.4635   85.0348    7.7910 F       1  UNL1       -0.2041
      8 C          62.8038   84.9745   10.3660 C.ar    1  UNL1        0.0328
      9 C          62.7820   85.6681   11.6958 C.ar    1  UNL1        0.0406
     10 C          62.3981   87.1157   11.7804 C.ar    1  UNL1        0.0181
     11 C          63.1440   84.9142   12.9410 C.ar    1  UNL1        0.1807
     12 N          62.3438   84.8698   14.2089 N.ar    1  UNL1       -0.1083
     13 N          63.0751   84.0005   15.1884 N.ar    1  UNL1       -0.0229
     14 N          64.3273   83.5076   14.5259 N.ar    1  UNL1       -0.0464
     15 N          64.3699   84.0723   13.1369 N.ar    1  UNL1       -0.2388
     16 H          65.0781   83.9175   12.4708 H       1  UNL1        0.1923
     17 C          58.4388   88.9496   12.8138 C.3     1  UNL1        0.0101
     18 C          59.3762   88.6516   11.6814 C.3     1  UNL1        0.0856
     19 C          62.5982   90.3738   10.1314 C.3     1  UNL1        0.1247
     20 C          63.5822   90.9952   11.0780 C.ar    1  UNL1       -0.0020
     21 C          64.5219   92.0584   10.5918 C.ar    1  UNL1       -0.0027
     22 C          65.5057   92.6797   11.5383 C.ar    1  UNL1        0.0036
     23 C          65.5499   92.2378   12.9711 C.ar    1  UNL1        0.0714
     24 C          64.6102   91.1745   13.4573 C.ar    1  UNL1        0.0036
     25 C          63.6263   90.5532   12.5107 C.ar    1  UNL1       -0.0027
     26 C          66.5338   92.8591   13.9176 C.3     1  UNL1        0.4186
     27 F          67.5177   93.4804   14.8641 F       1  UNL1       -0.1659
     28 F          66.2246   94.2129   13.3505 F       1  UNL1       -0.1659
     29 F          66.8430   91.5054   14.4848 F       1  UNL1       -0.1659
@<TRIPOS>BOND
     1    17    18    1
     2    18     1    1
     3     1     2    2
     4     1     3   am
     5     3    19    1
     6    19    20    1
     7    20    21   ar
     8    21    22   ar
     9    22    23   ar
    10    23    26    1
    11    26    27    1
    12    26    28    1
    13    26    29    1
    14    23    24   ar
    15    24    25   ar
    16     3     4    1
    17     4     5   ar
    18     5     6   ar
    19     6     7    1
    20     6     8   ar
    21     8     9   ar
    22     9    11    1
    23    11    12   ar
    24    12    13   ar
    25    13    14   ar
    26    14    15   ar
    27     9    10   ar
    28    25    20   ar
    29    10     4   ar
    30    15    11   ar
    31    15    16    1
@<TRIPOS>MOLECULE
*****
 29 31 0 0 0
SMALL
GASTEIGER

@<TRIPOS>ATOM
      1 C          60.3228   88.9844   11.0132 C.2     1  UNL1        0.2296
      2 O          59.4163   88.2134   10.1000 O.2     1  UNL1       -0.2745
      3 N          61.8105   88.8342   10.8951 N.am    1  UNL1       -0.2543
      4 C          62.7170   89.6053   11.8083 C.ar    1  UNL1        0.0565
      5 C          62.7742   89.2676   13.2687 C.ar    1  UNL1        0.0445
      6 C          63.6806   90.0386   14.1818 C.ar    1  UNL1        0.1415
      7 F          63.7378   89.7009   15.6422 F       1  UNL1       -0.2041
      8 C          64.5298   91.1474   13.6346 C.ar    1  UNL1        0.0328
      9 C          64.4727   91.4851   12.1743 C.ar    1  UNL1        0.0406
     10 C          63.5662   90.7140   11.2611 C.ar    1  UNL1        0.0181
     11 C          65.3219   92.5938   11.6270 C.ar    1  UNL1        0.1807
     12 N          65.9085   92.6567   10.2479 N.ar    1  UNL1       -0.1083
     13 N          66.6828   93.9361   10.1314 N.ar    1  UNL1       -0.0229
     14 N          66.5748   94.6640   11.4385 N.ar    1  UNL1       -0.0464
     15 N          65.7337   93.8344   12.3629 N.ar    1  UNL1       -0.2388
     16 H          65.4940   94.0638   13.2898 H       1  UNL1        0.1923
     17 C          58.9418   91.1006   11.6171 C.3     1  UNL1        0.0101
     18 C          59.7414   89.9056   12.0444 C.3     1  UNL1        0.0856
     19 C          62.3919   87.9130    9.8639 C.3     1  UNL1        0.1247
     20 C          62.6020   86.4632   10.1865 C.ar    1  UNL1       -0.0020
     21 C          63.0530   85.5144    9.1159 C.ar    1  UNL1       -0.0027
     22 C          63.2631   84.0647    9.4385 C.ar    1  UNL1        0.0036
     23 C          63.0221   83.5638   10.8317 C.ar    1  UNL1        0.0714
     24 C          62.5711   84.5126   11.9023 C.ar    1  UNL1        0.0036
     25 C          62.3611   85.9623   11.5797 C.ar    1  UNL1       -0.0027
     26 C          63.2322   82.1139   11.1543 C.3     1  UNL1        0.4186
     27 F          63.4423   80.6642   11.4768 F       1  UNL1       -0.1659
     28 F          62.0704   82.1564   12.1020 F       1  UNL1       -0.1659
     29 F          64.3940   82.0715   10.2065 F       1  UNL1       -0.1659
@<TRIPOS>BOND
     1    17    18    1
     2    18     1    1
     3     1     2    2
     4     1     3   am
     5     3    19    1
     6    19    20    1
     7    20    21   ar
     8    21    22   ar
     9    22    23   ar
    10    23    26    1
    11    26    27    1
    12    26    28    1
    13    26    29    1
    14    23    24   ar
    15    24    25   ar
    16     3     4    1
    17     4     5   ar
    18     5     6   ar
    19     6     7    1
    20     6     8   ar
    21     8     9   ar
    22     9    11    1
    23    11    12   ar
    24    12    13   ar
    25    13    14   ar
    26    14    15   ar
    27     9    10   ar
    28    25    20   ar
    29    10     4   ar
    30    15    11   ar
    31    15    16    1
@<TRIPOS>MOLECULE
*****
 29 31 0 0 0
SMALL
GASTEIGER

@<TRIPOS>ATOM
      1 C          64.1954   91.6449   11.3610 C.2     1  UNL1        0.2296
      2 O          63.9444   92.4309   10.1084 O.2     1  UNL1       -0.2745
      3 N          63.1193   90.7627   11.9213 N.am    1  UNL1       -0.2543
      4 C          63.3704   89.9767   13.1740 C.ar    1  UNL1        0.0565
      5 C          63.3316   90.6602   14.5086 C.ar    1  UNL1        0.0445
      6 C          63.5827   89.8742   15.7613 C.ar    1  UNL1        0.1415
      7 F          63.5439   90.5576   17.0960 F       1  UNL1       -0.2041
      8 C          63.8726   88.4047   15.6792 C.ar    1  UNL1        0.0328
      9 C          63.9114   87.7213   14.3446 C.ar    1  UNL1        0.0406
     10 C          63.6603   88.5073   13.0919 C.ar    1  UNL1        0.0181
     11 C          64.2013   86.2519   14.2625 C.ar    1  UNL1        0.1807
     12 N          63.4050   85.2375   13.4964 N.ar    1  UNL1       -0.1083
     13 N          64.0499   83.8975   13.6926 N.ar    1  UNL1       -0.0229
     14 N          65.2448   84.0837   14.5800 N.ar    1  UNL1       -0.0464
     15 N          65.3384   85.5387   14.9322 N.ar    1  UNL1       -0.2388
     16 H          66.0254   85.9530   15.5028 H       1  UNL1        0.1923
     17 C          66.0295   93.0729   12.5217 C.3     1  UNL1        0.0101
     18 C          65.5226   91.7410   12.0535 C.3     1  UNL1        0.0856
     19 C          61.7922   90.6666   11.2288 C.3     1  UNL1        0.1247
     20 C          61.4893   89.4908   10.3479 C.ar    1  UNL1       -0.0020
     21 C          62.4291   88.3224   10.3071 C.ar    1  UNL1       -0.0027
     22 C          62.1262   87.1468    9.4262 C.ar    1  UNL1        0.0036
     23 C          60.8835   87.1395    8.5862 C.ar    1  UNL1        0.0714
     24 C          59.9437   88.3078    8.6270 C.ar    1  UNL1        0.0036
     25 C          60.2466   89.4835    9.5079 C.ar    1  UNL1       -0.0027
     26 C          60.5805   85.9637    7.7053 C.3     1  UNL1        0.4186
     27 F          60.2776   84.7880    6.8244 F       1  UNL1       -0.1659
     28 F          62.0430   85.6373    7.6380 F       1  UNL1       -0.1659
     29 F          59.1181   86.2901    7.7726 F       1  UNL1       -0.1659
@<TRIPOS>BOND
     1    17    18    1
     2    18     1    1
     3     1     2    2
     4     1     3   am
     5     3    19    1
     6    19    20    1
     7    20    21   ar
     8    21    22   ar
     9    22    23   ar
    10    23    26    1
    11    26    27    1
    12    26    28    1
    13    26    29    1
    14    23    24   ar
    15    24    25   ar
    16     3     4    1
    17     4     5   ar
    18     5     6   ar
    19     6     7    1
    20     6     8   ar
    21     8     9   ar
    22     9    11    1
    23    11    12   ar
    24    12    13   ar
    25    13    14   ar
    26    14    15   ar
    27     9    10   ar
    28    25    20   ar
    29    10     4   ar
    30    15    11   ar
    31    15    16    1
@<TRIPOS>MOLECULE
*****
 29 31 0 0 0
SMALL
GASTEIGER

@<TRIPOS>ATOM
      1 C          63.2836   85.0763   15.9199 C.2     1  UNL1        0.2296
      2 O          63.4772   83.7062   16.4988 O.2     1  UNL1       -0.2745
      3 N          64.0336   85.4820   14.6858 N.am    1  UNL1       -0.2543
      4 C          63.8399   86.8522   14.1069 C.ar    1  UNL1        0.0565
      5 C          63.2839   87.0099   12.7228 C.ar    1  UNL1        0.0445
      6 C          63.0903   88.3801   12.1440 C.ar    1  UNL1        0.1415
      7 F          62.5343   88.5378   10.7597 F       1  UNL1       -0.2041
      8 C          63.4527   89.5925   12.9493 C.ar    1  UNL1        0.0328
      9 C          64.0086   89.4349   14.3335 C.ar    1  UNL1        0.0406
     10 C          64.2023   88.0647   14.9123 C.ar    1  UNL1        0.0181
     11 C          64.3710   90.6473   15.1388 C.ar    1  UNL1        0.1807
     12 N          63.5717   91.2269   16.2681 N.ar    1  UNL1       -0.1083
     13 N          64.3030   92.4309   16.7835 N.ar    1  UNL1       -0.0229
     14 N          65.5542   92.5955   15.9728 N.ar    1  UNL1       -0.0464
     15 N          65.5962   91.4932   14.9563 N.ar    1  UNL1       -0.2388
     16 H          66.3038   91.3500   14.2869 H       1  UNL1        0.1923
     17 C          62.6384   86.5668   17.9478 C.3     1  UNL1        0.0101
     18 C          62.3399   86.0409   16.5751 C.3     1  UNL1        0.0856
     19 C          64.9772   84.5175   14.0307 C.3     1  UNL1        0.1247
     20 C          64.4399   83.3858   13.2056 C.ar    1  UNL1       -0.0020
     21 C          64.4251   83.4896   11.7093 C.ar    1  UNL1       -0.0027
     22 C          63.8878   82.3580   10.8842 C.ar    1  UNL1        0.0036
     23 C          63.3653   81.1226   11.5555 C.ar    1  UNL1        0.0714
     24 C          63.3800   81.0188   13.0518 C.ar    1  UNL1        0.0036
     25 C          63.9173   82.1504   13.8768 C.ar    1  UNL1       -0.0027
     26 C          62.8279   79.9909   10.7304 C.3     1  UNL1        0.4186
     27 F          62.2906   78.8594    9.9053 F       1  UNL1       -0.1659
     28 F          62.5155   79.2263   11.9825 F       1  UNL1       -0.1659
     29 F          63.1404   80.7555    9.4784 F       1  UNL1       -0.1659
@<TRIPOS>BOND
     1    17    18    1
     2    18     1    1
     3     1     2    2
     4     1     3   am
     5     3    19    1
     6    19    20    1
     7    20    21   ar
     8    21    22   ar
     9    22    23   ar
    10    23    26    1
    11    26    27    1
    12    26    28    1
    13    26    29    1
    14    23    24   ar
    15    24    25   ar
    16     3     4    1
    17     4     5   ar
    18     5     6   ar
    19     6     7    1
    20     6     8   ar
    21     8     9   ar
    22     9    11    1
    23    11    12   ar
    24    12    13   ar
    25    13    14   ar
    26    14    15   ar
    27     9    10   ar
    28    25    20   ar
    29    10     4   ar
    30    15    11   ar
    31    15    16    1
@<TRIPOS>MOLECULE
*****
 29 31 0 0 0
SMALL
GASTEIGER

@<TRIPOS>ATOM
      1 C          61.9525   86.8042    9.8736 C.2     1  UNL1        0.2296
      2 O          61.3029   87.6862    8.8490 O.2     1  UNL1       -0.2745
      3 N          62.1638   87.3074   11.2708 N.am    1  UNL1       -0.2543
      4 C          62.8134   86.4253   12.2955 C.ar    1  UNL1        0.0565
      5 C          63.7763   87.0098   13.2861 C.ar    1  UNL1        0.0445
      6 C          64.4259   86.1277   14.3107 C.ar    1  UNL1        0.1415
      7 F          65.3889   86.7121   15.3013 F       1  UNL1       -0.2041
      8 C          64.1126   84.6612   14.3448 C.ar    1  UNL1        0.0328
      9 C          63.1497   84.0767   13.3542 C.ar    1  UNL1        0.0406
     10 C          62.5001   84.9588   12.3296 C.ar    1  UNL1        0.0181
     11 C          62.8364   82.6102   13.3883 C.ar    1  UNL1        0.1807
     12 N          62.8642   81.6752   12.2157 N.ar    1  UNL1       -0.1083
     13 N          62.4852   80.3083   12.7037 N.ar    1  UNL1       -0.0229
     14 N          62.2232   80.3986   14.1778 N.ar    1  UNL1       -0.0464
     15 N          62.4402   81.8212   14.6009 N.ar    1  UNL1       -0.2388
     16 H          62.3402   82.1750   15.5142 H       1  UNL1        0.1923
     17 C          63.0817   85.1774    8.1918 C.3     1  UNL1        0.0101
     18 C          62.3909   85.4188    9.5012 C.3     1  UNL1        0.0856
     19 C          61.7255   88.6927   11.6433 C.3     1  UNL1        0.1247
     20 C          62.7106   89.8236   11.6170 C.ar    1  UNL1       -0.0020
     21 C          62.9809   90.5533   10.3346 C.ar    1  UNL1       -0.0027
     22 C          63.9660   91.6841   10.3084 C.ar    1  UNL1        0.0036
     23 C          64.6808   92.0853   11.5646 C.ar    1  UNL1        0.0714
     24 C          64.4106   91.3557   12.8470 C.ar    1  UNL1        0.0036
     25 C          63.4255   90.2249   12.8732 C.ar    1  UNL1       -0.0027
     26 C          65.6660   93.2162   11.5383 C.3     1  UNL1        0.4186
     27 F          66.6510   94.3471   11.5120 F       1  UNL1       -0.1659
     28 F          65.6496   93.2654   13.0374 F       1  UNL1       -0.1659
     29 F          65.6823   93.1671   10.0393 F       1  UNL1       -0.1659
@<TRIPOS>BOND
     1    17    18    1
     2    18     1    1
     3     1     2    2
     4     1     3   am
     5     3    19    1
     6    19    20    1
     7    20    21   ar
     8    21    22   ar
     9    22    23   ar
    10    23    26    1
    11    26    27    1
    12    26    28    1
    13    26    29    1
    14    23    24   ar
    15    24    25   ar
    16     3     4    1
    17     4     5   ar
    18     5     6   ar
    19     6     7    1
    20     6     8   ar
    21     8     9   ar
    22     9    11    1
    23    11    12   ar
    24    12    13   ar
    25    13    14   ar
    26    14    15   ar
    27     9    10   ar
    28    25    20   ar
    29    10     4   ar
    30    15    11   ar
    31    15    16    1
@<TRIPOS>MOLECULE
*****
 29 31 0 0 0
SMALL
GASTEIGER

@<TRIPOS>ATOM
      1 C          63.4147   87.8749   16.1027 C.2     1  UNL1        0.2296
      2 O          63.5421   86.8107   17.1520 O.2     1  UNL1       -0.2745
      3 N          64.0871   87.7016   14.7731 N.am    1  UNL1       -0.2543
      4 C          63.9597   88.7659   13.7238 C.ar    1  UNL1        0.0565
      5 C          63.0758   88.5427   12.5326 C.ar    1  UNL1        0.0445
      6 C          62.9484   89.6070   11.4833 C.ar    1  UNL1        0.1415
      7 F          62.0645   89.3838   10.2921 F       1  UNL1       -0.2041
      8 C          63.7049   90.8945   11.6252 C.ar    1  UNL1        0.0328
      9 C          64.5887   91.1177   12.8164 C.ar    1  UNL1        0.0406
     10 C          64.7161   90.0534   13.8656 C.ar    1  UNL1        0.0181
     11 C          65.3452   92.4051   12.9583 C.ar    1  UNL1        0.1807
     12 N          65.8417   92.9991   14.2431 N.ar    1  UNL1       -0.1083
     13 N          66.5413   94.2858   13.9191 N.ar    1  UNL1       -0.0229
     14 N          66.4773   94.4870   12.4341 N.ar    1  UNL1       -0.0464
     15 N          65.7381   93.3248   11.8403 N.ar    1  UNL1       -0.2388
     16 H          65.5447   93.1893   10.8845 H       1  UNL1        0.1923
     17 C          63.3116   90.3867   16.7587 C.3     1  UNL1        0.0101
     18 C          62.6148   89.1126   16.3829 C.3     1  UNL1        0.0856
     19 C          64.8869   86.4640   14.4928 C.3     1  UNL1        0.1247
     20 C          64.1884   85.1610   14.2389 C.ar    1  UNL1       -0.0020
     21 C          64.2671   84.0578   15.2522 C.ar    1  UNL1       -0.0027
     22 C          63.5686   82.7550   14.9982 C.ar    1  UNL1        0.0036
     23 C          62.7914   82.5553   13.7309 C.ar    1  UNL1        0.0714
     24 C          62.7126   83.6584   12.7176 C.ar    1  UNL1        0.0036
     25 C          63.4111   84.9613   12.9716 C.ar    1  UNL1       -0.0027
     26 C          62.0928   81.2523   13.4770 C.3     1  UNL1        0.4186
     27 F          61.3943   79.9494   13.2231 F       1  UNL1       -0.1659
     28 F          63.0373   80.9660   12.3474 F       1  UNL1       -0.1659
     29 F          61.1483   81.5386   14.6065 F       1  UNL1       -0.1659
@<TRIPOS>BOND
     1    17    18    1
     2    18     1    1
     3     1     2    2
     4     1     3   am
     5     3    19    1
     6    19    20    1
     7    20    21   ar
     8    21    22   ar
     9    22    23   ar
    10    23    26    1
    11    26    27    1
    12    26    28    1
    13    26    29    1
    14    23    24   ar
    15    24    25   ar
    16     3     4    1
    17     4     5   ar
    18     5     6   ar
    19     6     7    1
    20     6     8   ar
    21     8     9   ar
    22     9    11    1
    23    11    12   ar
    24    12    13   ar
    25    13    14   ar
    26    14    15   ar
    27     9    10   ar
    28    25    20   ar
    29    10     4   ar
    30    15    11   ar
    31    15    16    1
