@<TRIPOS>MOLECULE
*****
 23 26 0 0 0
SMALL
GASTEIGER

@<TRIPOS>ATOM
      1 C          64.4226   89.7855   14.1692 C.ar    1  UNL1        0.1215
      2 N          65.6745   90.6034   14.2865 N.ar    1  UNL1       -0.2309
      3 C          65.7213   91.5488   13.1229 C.ar    1  UNL1        0.0983
      4 C          66.7196   92.5922   12.7170 C.ar    1  UNL1        0.0206
      5 C          66.4949   93.4020   11.4746 C.ar    1  UNL1        0.0016
      6 C          65.2719   93.1685   10.6381 C.ar    1  UNL1        0.0016
      7 C          64.2736   92.1251   11.0440 C.ar    1  UNL1        0.0188
      8 C          64.4983   91.3153   12.2864 C.ar    1  UNL1        0.0789
      9 N          63.6957   90.2255   12.9330 N.ar    1  UNL1       -0.3090
     10 C          64.0378   84.7595   15.4306 C.3     1  UNL1        0.0896
     11 N          63.7836   86.2026   15.7516 N.3     1  UNL1       -0.2711
     12 C          63.0827   86.5756   17.0242 C.3     1  UNL1        0.0722
     13 C          62.8285   88.0186   17.3452 C.3     1  UNL1        0.0178
     14 C          63.2751   89.0886   16.3935 C.3     1  UNL1        0.0103
     15 C          63.9760   88.7156   15.1209 C.3     1  UNL1        0.0729
     16 C          64.2302   87.2726   14.7999 C.3     1  UNL1        0.0796
     17 C          62.3945   89.6728   12.4316 C.3     1  UNL1        0.1529
     18 C          62.3843   88.4524   11.5597 C.ar    1  UNL1        0.0819
     19 C          62.1362   88.5852   10.0863 C.ar    1  UNL1        0.0167
     20 C          62.1260   87.3647    9.2143 C.ar    1  UNL1        0.0029
     21 C          62.3639   86.0113    9.8158 C.ar    1  UNL1        0.0207
     22 C          62.6120   85.8785   11.2891 C.ar    1  UNL1        0.0985
     23 N          62.6222   87.0989   12.1611 N.ar    1  UNL1       -0.2462
@<TRIPOS>BOND
     1    10    11    1
     2    11    12    1
     3    12    13    1
     4    13    14    1
     5    14    15    1
     6    15     1    1
     7     1     2   ar
     8     2     3   ar
     9     3     4   ar
    10     4     5   ar
    11     5     6   ar
    12     6     7   ar
    13     7     8   ar
    14     8     9   ar
    15     9    17    1
    16    17    18    1
    17    18    19   ar
    18    19    20   ar
    19    20    21   ar
    20    21    22   ar
    21    22    23   ar
    22    15    16    1
    23    16    11    1
    24     9     1   ar
    25    23    18   ar
    26     8     3   ar
@<TRIPOS>MOLECULE
*****
 23 26 0 0 0
SMALL
GASTEIGER

@<TRIPOS>ATOM
      1 C          63.5311   90.5450   12.8197 C.ar    1  UNL1        0.1215
      2 N          64.4756   91.4504   12.0859 N.ar    1  UNL1       -0.2309
      3 C          65.3892   92.0823   13.0939 C.ar    1  UNL1        0.0983
      4 C          66.5179   93.0599   12.9516 C.ar    1  UNL1        0.0206
      5 C          67.2668   93.5227   14.1660 C.ar    1  UNL1        0.0016
      6 C          66.8870   93.0079   15.5228 C.ar    1  UNL1        0.0016
      7 C          65.7583   92.0303   15.6651 C.ar    1  UNL1        0.0188
      8 C          65.0095   91.5675   14.4506 C.ar    1  UNL1        0.0789
      9 N          63.8611   90.6174   14.2811 N.ar    1  UNL1       -0.3090
     10 C          61.8852   86.0091   10.8919 C.3     1  UNL1        0.0896
     11 N          61.6241   87.4455   11.2368 N.3     1  UNL1       -0.2711
     12 C          60.2790   88.0501   10.9626 C.3     1  UNL1        0.0722
     13 C          60.0180   89.4863   11.3075 C.3     1  UNL1        0.0178
     14 C          61.1020   90.3180   11.9265 C.3     1  UNL1        0.0103
     15 C          62.4471   89.7134   12.2007 C.3     1  UNL1        0.0729
     16 C          62.7081   88.2771   11.8558 C.3     1  UNL1        0.0796
     17 C          63.1649   89.8709   15.3802 C.3     1  UNL1        0.1529
     18 C          63.4644   88.4188   15.6072 C.ar    1  UNL1        0.0819
     19 C          64.4156   87.6981   14.6983 C.ar    1  UNL1        0.0167
     20 C          64.7152   86.2460   14.9252 C.ar    1  UNL1        0.0029
     21 C          64.0635   85.5144   16.0611 C.ar    1  UNL1        0.0207
     22 C          63.1123   86.2350   16.9699 C.ar    1  UNL1        0.0985
     23 N          62.8128   87.6871   16.7430 N.ar    1  UNL1       -0.2462
@<TRIPOS>BOND
     1    10    11    1
     2    11    12    1
     3    12    13    1
     4    13    14    1
     5    14    15    1
     6    15     1    1
     7     1     2   ar
     8     2     3   ar
     9     3     4   ar
    10     4     5   ar
    11     5     6   ar
    12     6     7   ar
    13     7     8   ar
    14     8     9   ar
    15     9    17    1
    16    17    18    1
    17    18    19   ar
    18    19    20   ar
    19    20    21   ar
    20    21    22   ar
    21    22    23   ar
    22    15    16    1
    23    16    11    1
    24     9     1   ar
    25    23    18   ar
    26     8     3   ar
@<TRIPOS>MOLECULE
*****
 23 26 0 0 0
SMALL
GASTEIGER

@<TRIPOS>ATOM
      1 C          62.8015   85.7054   11.7211 C.ar    1  UNL1        0.1215
      2 N          62.0870   86.4825   10.6555 N.ar    1  UNL1       -0.2309
      3 C          62.2750   87.9429   10.9419 C.ar    1  UNL1        0.0983
      4 C          61.7971   89.1746   10.2317 C.ar    1  UNL1        0.0206
      5 C          62.1499   90.5318   10.7641 C.ar    1  UNL1        0.0016
      6 C          62.9807   90.6572   12.0068 C.ar    1  UNL1        0.0016
      7 C          63.4586   89.4255   12.7169 C.ar    1  UNL1        0.0188
      8 C          63.1057   88.0683   12.1845 C.ar    1  UNL1        0.0789
      9 N          63.4311   86.6855   12.6661 N.ar    1  UNL1       -0.3090
     10 C          61.8104   81.3206   14.3271 C.3     1  UNL1        0.0896
     11 N          62.3781   82.0182   13.1267 N.3     1  UNL1       -0.2711
     12 C          63.0181   81.2211   12.0289 C.3     1  UNL1        0.0722
     13 C          63.5858   81.9188   10.8286 C.3     1  UNL1        0.0178
     14 C          63.5136   83.4135   10.7260 C.3     1  UNL1        0.0103
     15 C          62.8737   84.2106   11.8237 C.3     1  UNL1        0.0729
     16 C          62.3059   83.5130   13.0241 C.3     1  UNL1        0.0796
     17 C          64.2435   86.3429   13.8796 C.3     1  UNL1        0.1529
     18 C          63.7277   86.6799   15.2471 C.ar    1  UNL1        0.0819
     19 C          63.3290   85.5832   16.1897 C.ar    1  UNL1        0.0167
     20 C          62.8132   85.9202   17.5573 C.ar    1  UNL1        0.0029
     21 C          62.6961   87.3539   17.9824 C.ar    1  UNL1        0.0207
     22 C          63.0948   88.4506   17.0399 C.ar    1  UNL1        0.0985
     23 N          63.6106   88.1136   15.6723 N.ar    1  UNL1       -0.2462
@<TRIPOS>BOND
     1    10    11    1
     2    11    12    1
     3    12    13    1
     4    13    14    1
     5    14    15    1
     6    15     1    1
     7     1     2   ar
     8     2     3   ar
     9     3     4   ar
    10     4     5   ar
    11     5     6   ar
    12     6     7   ar
    13     7     8   ar
    14     8     9   ar
    15     9    17    1
    16    17    18    1
    17    18    19   ar
    18    19    20   ar
    19    20    21   ar
    20    21    22   ar
    21    22    23   ar
    22    15    16    1
    23    16    11    1
    24     9     1   ar
    25    23    18   ar
    26     8     3   ar
@<TRIPOS>MOLECULE
*****
 23 26 0 0 0
SMALL
GASTEIGER

@<TRIPOS>ATOM
      1 C          63.8653   90.7901   12.7741 C.ar    1  UNL1        0.1215
      2 N          64.0441   90.7332   14.2623 N.ar    1  UNL1       -0.2309
      3 C          65.1653   91.6592   14.6303 C.ar    1  UNL1        0.0983
      4 C          65.7845   92.0107   15.9505 C.ar    1  UNL1        0.0206
      5 C          66.9178   92.9914   16.0100 C.ar    1  UNL1        0.0016
      6 C          67.4320   93.6207   14.7492 C.ar    1  UNL1        0.0016
      7 C          66.8128   93.2692   13.4289 C.ar    1  UNL1        0.0188
      8 C          65.6795   92.2885   13.3695 C.ar    1  UNL1        0.0789
      9 N          64.8761   91.7513   12.2223 N.ar    1  UNL1       -0.3090
     10 C          61.8747   86.2520   11.2110 C.3     1  UNL1        0.0896
     11 N          61.8582   87.7519   11.1960 N.3     1  UNL1       -0.2711
     12 C          60.8298   88.4825   10.3844 C.3     1  UNL1        0.0722
     13 C          60.8133   89.9823   10.3694 C.3     1  UNL1        0.0178
     14 C          61.8252   90.7515   11.1660 C.3     1  UNL1        0.0103
     15 C          62.8535   90.0209   11.9775 C.3     1  UNL1        0.0729
     16 C          62.8700   88.5211   11.9925 C.3     1  UNL1        0.0796
     17 C          65.0524   92.1121   10.7771 C.3     1  UNL1        0.1529
     18 C          65.8822   93.3024   10.3970 C.ar    1  UNL1        0.0819
     19 C          67.2090   93.1080    9.7246 C.ar    1  UNL1        0.0167
     20 C          68.0388   94.2983    9.3445 C.ar    1  UNL1        0.0029
     21 C          67.5420   95.6831    9.6369 C.ar    1  UNL1        0.0207
     22 C          66.2154   95.8776   10.3093 C.ar    1  UNL1        0.0985
     23 N          65.3855   94.6873   10.6894 N.ar    1  UNL1       -0.2462
@<TRIPOS>BOND
     1    10    11    1
     2    11    12    1
     3    12    13    1
     4    13    14    1
     5    14    15    1
     6    15     1    1
     7     1     2   ar
     8     2     3   ar
     9     3     4   ar
    10     4     5   ar
    11     5     6   ar
    12     6     7   ar
    13     7     8   ar
    14     8     9   ar
    15     9    17    1
    16    17    18    1
    17    18    19   ar
    18    19    20   ar
    19    20    21   ar
    20    21    22   ar
    21    22    23   ar
    22    15    16    1
    23    16    11    1
    24     9     1   ar
    25    23    18   ar
    26     8     3   ar
@<TRIPOS>MOLECULE
*****
 23 26 0 0 0
SMALL
GASTEIGER

@<TRIPOS>ATOM
      1 C          62.1601   89.0407   11.0326 C.ar    1  UNL1        0.1215
      2 N          61.6455   89.9019    9.9175 N.ar    1  UNL1       -0.2309
      3 C          60.7187   89.0713    9.0802 C.ar    1  UNL1        0.0983
      4 C          59.9202   89.3891    7.8508 C.ar    1  UNL1        0.0206
      5 C          59.0636   88.3323    7.2190 C.ar    1  UNL1        0.0016
      6 C          59.0053   86.9577    7.8166 C.ar    1  UNL1        0.0016
      7 C          59.8037   86.6399    9.0460 C.ar    1  UNL1        0.0188
      8 C          60.6604   87.6968    9.6778 C.ar    1  UNL1        0.0789
      9 N          61.5513   87.6778   10.8845 N.ar    1  UNL1       -0.3090
     10 C          65.4146   92.5715   13.0179 C.3     1  UNL1        0.0896
     11 N          64.7429   91.2328   13.0999 N.3     1  UNL1       -0.2711
     12 C          65.0269   90.3208   14.2564 C.3     1  UNL1        0.0722
     13 C          64.3552   88.9822   14.3384 C.3     1  UNL1        0.0178
     14 C          63.3996   88.5554   13.2638 C.3     1  UNL1        0.0103
     15 C          63.1157   89.4674   12.1072 C.3     1  UNL1        0.0729
     16 C          63.7873   90.8061   12.0253 C.3     1  UNL1        0.0796
     17 C          61.7911   86.5024   11.7849 C.3     1  UNL1        0.1529
     18 C          62.6344   85.3555   11.3125 C.ar    1  UNL1        0.0819
     19 C          62.8146   85.1122    9.8433 C.ar    1  UNL1        0.0167
     20 C          63.6579   83.9652    9.3708 C.ar    1  UNL1        0.0029
     21 C          64.3212   83.0615   10.3675 C.ar    1  UNL1        0.0207
     22 C          64.1410   83.3047   11.8366 C.ar    1  UNL1        0.0985
     23 N          63.2977   84.4517   12.3091 N.ar    1  UNL1       -0.2462
@<TRIPOS>BOND
     1    10    11    1
     2    11    12    1
     3    12    13    1
     4    13    14    1
     5    14    15    1
     6    15     1    1
     7     1     2   ar
     8     2     3   ar
     9     3     4   ar
    10     4     5   ar
    11     5     6   ar
    12     6     7   ar
    13     7     8   ar
    14     8     9   ar
    15     9    17    1
    16    17    18    1
    17    18    19   ar
    18    19    20   ar
    19    20    21   ar
    20    21    22   ar
    21    22    23   ar
    22    15    16    1
    23    16    11    1
    24     9     1   ar
    25    23    18   ar
    26     8     3   ar
@<TRIPOS>MOLECULE
*****
 23 26 0 0 0
SMALL
GASTEIGER

@<TRIPOS>ATOM
      1 C          62.9344   84.4195   14.7018 C.ar    1  UNL1        0.1215
      2 N          62.6363   83.0421   15.2154 N.ar    1  UNL1       -0.2309
      3 C          62.6643   82.0970   14.0508 C.ar    1  UNL1        0.0983
      4 C          62.4434   80.6166   13.9541 C.ar    1  UNL1        0.0206
      5 C          62.5378   79.9296   12.6240 C.ar    1  UNL1        0.0016
      6 C          62.8532   80.7230   11.3907 C.ar    1  UNL1        0.0016
      7 C          63.0741   82.2034   11.4875 C.ar    1  UNL1        0.0188
      8 C          62.9797   82.8905   12.8175 C.ar    1  UNL1        0.0789
      9 N          63.1466   84.3258   13.2199 N.ar    1  UNL1       -0.3090
     10 C          64.1663   89.4478   15.1480 C.3     1  UNL1        0.0896
     11 N          63.6234   88.1851   15.7487 N.3     1  UNL1       -0.2711
     12 C          63.1535   88.1738   17.1731 C.3     1  UNL1        0.0722
     13 C          62.6106   86.9111   17.7738 C.3     1  UNL1        0.0178
     14 C          62.5376   85.6597   16.9500 C.3     1  UNL1        0.0103
     15 C          63.0074   85.6709   15.5256 C.3     1  UNL1        0.0729
     16 C          63.5503   86.9336   14.9250 C.3     1  UNL1        0.0796
     17 C          63.4691   85.4671   12.3015 C.3     1  UNL1        0.1529
     18 C          62.4608   85.9231   11.2890 C.ar    1  UNL1        0.0819
     19 C          62.5394   85.4262    9.8758 C.ar    1  UNL1        0.0167
     20 C          61.5311   85.8822    8.8632 C.ar    1  UNL1        0.0029
     21 C          60.4441   86.8351    9.2638 C.ar    1  UNL1        0.0207
     22 C          60.3655   87.3319   10.6769 C.ar    1  UNL1        0.0985
     23 N          61.3738   86.8760   11.6895 N.ar    1  UNL1       -0.2462
@<TRIPOS>BOND
     1    10    11    1
     2    11    12    1
     3    12    13    1
     4    13    14    1
     5    14    15    1
     6    15     1    1
     7     1     2   ar
     8     2     3   ar
     9     3     4   ar
    10     4     5   ar
    11     5     6   ar
    12     6     7   ar
    13     7     8   ar
    14     8     9   ar
    15     9    17    1
    16    17    18    1
    17    18    19   ar
    18    19    20   ar
    19    20    21   ar
    20    21    22   ar
    21    22    23   ar
    22    15    16    1
    23    16    11    1
    24     9     1   ar
    25    23    18   ar
    26     8     3   ar
@<TRIPOS>MOLECULE
*****
 23 26 0 0 0
SMALL
GASTEIGER

@<TRIPOS>ATOM
      1 C          62.7003   85.8207   11.9156 C.ar    1  UNL1        0.1215
      2 N          62.1210   84.5889   11.2852 N.ar    1  UNL1       -0.2309
      3 C          62.6393   83.3973   12.0345 C.ar    1  UNL1        0.0983
      4 C          62.4083   81.9252   11.8624 C.ar    1  UNL1        0.0206
      5 C          63.0768   80.9484   12.7837 C.ar    1  UNL1        0.0016
      6 C          63.9764   81.4436   13.8771 C.ar    1  UNL1        0.0016
      7 C          64.2074   82.9157   14.0492 C.ar    1  UNL1        0.0188
      8 C          63.5388   83.8925   13.1279 C.ar    1  UNL1        0.0789
      9 N          63.5765   85.3902   13.0544 N.ar    1  UNL1       -0.3090
     10 C          60.2555   89.2148    8.8329 C.3     1  UNL1        0.0896
     11 N          61.2253   88.9316    9.9417 N.3     1  UNL1       -0.2711
     12 C          61.9424   90.0623   10.6179 C.3     1  UNL1        0.0722
     13 C          62.9121   89.7791   11.7267 C.3     1  UNL1        0.0178
     14 C          63.1647   88.3652   12.1592 C.3     1  UNL1        0.0103
     15 C          62.4476   87.2345   11.4830 C.3     1  UNL1        0.0729
     16 C          61.4779   87.5177   10.3742 C.3     1  UNL1        0.0796
     17 C          64.3540   86.2981   13.9606 C.3     1  UNL1        0.1529
     18 C          63.7894   86.6900   15.2938 C.ar    1  UNL1        0.0819
     19 C          63.3683   85.6321   16.2704 C.ar    1  UNL1        0.0167
     20 C          62.8037   86.0240   17.6036 C.ar    1  UNL1        0.0029
     21 C          62.6601   87.4739   17.9604 C.ar    1  UNL1        0.0207
     22 C          63.0810   88.5318   16.9839 C.ar    1  UNL1        0.0985
     23 N          63.6457   88.1399   15.6506 N.ar    1  UNL1       -0.2462
@<TRIPOS>BOND
     1    10    11    1
     2    11    12    1
     3    12    13    1
     4    13    14    1
     5    14    15    1
     6    15     1    1
     7     1     2   ar
     8     2     3   ar
     9     3     4   ar
    10     4     5   ar
    11     5     6   ar
    12     6     7   ar
    13     7     8   ar
    14     8     9   ar
    15     9    17    1
    16    17    18    1
    17    18    19   ar
    18    19    20   ar
    19    20    21   ar
    20    21    22   ar
    21    22    23   ar
    22    15    16    1
    23    16    11    1
    24     9     1   ar
    25    23    18   ar
    26     8     3   ar
@<TRIPOS>MOLECULE
*****
 23 26 0 0 0
SMALL
GASTEIGER

@<TRIPOS>ATOM
      1 C          63.5781   86.1892   13.2598 C.ar    1  UNL1        0.1215
      2 N          64.3969   85.1957   14.0294 N.ar    1  UNL1       -0.2309
      3 C          63.9448   83.8200   13.6381 C.ar    1  UNL1        0.0983
      4 C          64.3913   82.4554   14.0721 C.ar    1  UNL1        0.0206
      5 C          63.7396   81.2341   13.4946 C.ar    1  UNL1        0.0016
      6 C          62.6413   81.3774   12.4830 C.ar    1  UNL1        0.0016
      7 C          62.1948   82.7420   12.0490 C.ar    1  UNL1        0.0188
      8 C          62.8466   83.9633   12.6265 C.ar    1  UNL1        0.0789
      9 N          62.6199   85.4276   12.3927 N.ar    1  UNL1       -0.3090
     10 C          62.8063   90.8871   11.1778 C.3     1  UNL1        0.0896
     11 N          63.3107   90.0312   12.3017 N.3     1  UNL1       -0.2711
     12 C          63.9336   90.6683   13.5083 C.3     1  UNL1        0.0722
     13 C          64.4380   89.8123   14.6321 C.3     1  UNL1        0.0178
     14 C          64.3195   88.3193   14.5493 C.3     1  UNL1        0.0103
     15 C          63.6966   87.6822   13.3426 C.3     1  UNL1        0.0729
     16 C          63.1922   88.5381   12.2188 C.3     1  UNL1        0.0796
     17 C          61.6120   86.0252   11.4563 C.3     1  UNL1        0.1529
     18 C          61.7071   85.7598    9.9831 C.ar    1  UNL1        0.0819
     19 C          62.9463   85.1368    9.4117 C.ar    1  UNL1        0.0167
     20 C          63.0415   84.8713    7.9384 C.ar    1  UNL1        0.0029
     21 C          61.8974   85.2288    7.0365 C.ar    1  UNL1        0.0207
     22 C          60.6583   85.8517    7.6079 C.ar    1  UNL1        0.0985
     23 N          60.5631   86.1172    9.0811 N.ar    1  UNL1       -0.2462
@<TRIPOS>BOND
     1    10    11    1
     2    11    12    1
     3    12    13    1
     4    13    14    1
     5    14    15    1
     6    15     1    1
     7     1     2   ar
     8     2     3   ar
     9     3     4   ar
    10     4     5   ar
    11     5     6   ar
    12     6     7   ar
    13     7     8   ar
    14     8     9   ar
    15     9    17    1
    16    17    18    1
    17    18    19   ar
    18    19    20   ar
    19    20    21   ar
    20    21    22   ar
    21    22    23   ar
    22    15    16    1
    23    16    11    1
    24     9     1   ar
    25    23    18   ar
    26     8     3   ar
@<TRIPOS>MOLECULE
*****
 23 26 0 0 0
SMALL
GASTEIGER

@<TRIPOS>ATOM
      1 C          62.8192   85.8647   11.9344 C.ar    1  UNL1        0.1215
      2 N          62.2130   84.6626   11.2729 N.ar    1  UNL1       -0.2309
      3 C          62.6547   83.4450   12.0295 C.ar    1  UNL1        0.0983
      4 C          62.3699   81.9851   11.8362 C.ar    1  UNL1        0.0206
      5 C          62.9643   80.9747   12.7719 C.ar    1  UNL1        0.0016
      6 C          63.8435   81.4242   13.9010 C.ar    1  UNL1        0.0016
      7 C          64.1283   82.8842   14.0944 C.ar    1  UNL1        0.0188
      8 C          63.5339   83.8946   13.1586 C.ar    1  UNL1        0.0789
      9 N          63.6356   85.3900   13.0998 N.ar    1  UNL1       -0.3090
     10 C          63.6401   90.9355   12.7175 C.3     1  UNL1        0.0896
     11 N          63.0509   89.8263   11.8973 N.3     1  UNL1       -0.2711
     12 C          62.2830   90.1435   10.6484 C.3     1  UNL1        0.0722
     13 C          61.6939   89.0344    9.8282 C.3     1  UNL1        0.0178
     14 C          61.8726   87.6081   10.2569 C.3     1  UNL1        0.0103
     15 C          62.6405   87.2910   11.5057 C.3     1  UNL1        0.0729
     16 C          63.2297   88.4000   12.3259 C.3     1  UNL1        0.0796
     17 C          64.4166   86.2582   14.0412 C.3     1  UNL1        0.1529
     18 C          63.8194   86.6665   15.3551 C.ar    1  UNL1        0.0819
     19 C          63.3641   85.6208   16.3294 C.ar    1  UNL1        0.0167
     20 C          62.7669   86.0291   17.6434 C.ar    1  UNL1        0.0029
     21 C          62.6249   87.4832   17.9832 C.ar    1  UNL1        0.0207
     22 C          63.0801   88.5289   17.0089 C.ar    1  UNL1        0.0985
     23 N          63.6774   88.1206   15.6949 N.ar    1  UNL1       -0.2462
@<TRIPOS>BOND
     1    10    11    1
     2    11    12    1
     3    12    13    1
     4    13    14    1
     5    14    15    1
     6    15     1    1
     7     1     2   ar
     8     2     3   ar
     9     3     4   ar
    10     4     5   ar
    11     5     6   ar
    12     6     7   ar
    13     7     8   ar
    14     8     9   ar
    15     9    17    1
    16    17    18    1
    17    18    19   ar
    18    19    20   ar
    19    20    21   ar
    20    21    22   ar
    21    22    23   ar
    22    15    16    1
    23    16    11    1
    24     9     1   ar
    25    23    18   ar
    26     8     3   ar
