@<TRIPOS>MOLECULE
*****
 38 42 0 0 0
SMALL
GASTEIGER

@<TRIPOS>ATOM
      1 C          62.6549   86.8663   12.2288 C.3     1  UNL1        0.1024
      2 C          62.4164   85.5734   12.9507 C.3     1  UNL1        0.0643
      3 C          63.0334   85.3419   14.2982 C.3     1  UNL1        0.1368
      4 C          63.3972   84.6594   15.5834 C.3     1  UNL1        0.0437
      5 C          62.3042   84.0433   14.1191 C.3     1  UNL1        0.0437
      6 O          63.8890   86.4034   14.9237 O.3     1  UNL1       -0.4676
      7 C          64.1275   87.6963   14.2017 C.ar    1  UNL1        0.2219
      8 N          64.9831   88.7578   14.8272 N.ar    1  UNL1       -0.2119
      9 C          65.2216   90.0508   14.1053 C.ar    1  UNL1        0.0851
     10 C          64.6046   90.2824   12.7578 C.ar    1  UNL1        0.0177
     11 C          63.7490   89.2209   12.1323 C.ar    1  UNL1        0.0034
     12 C          63.5105   87.9278   12.8543 C.ar    1  UNL1        0.0488
     13 C          66.0772   91.1123   14.7308 C.ar    1  UNL1        0.0284
     14 C          67.4916   91.3040   14.2693 C.ar    1  UNL1        0.0032
     15 C          68.3472   92.3655   14.8948 C.ar    1  UNL1        0.0115
     16 C          67.7883   93.2353   15.9817 C.ar    1  UNL1        0.0585
     17 CL         68.6439   94.2968   16.6072 Cl      1  UNL1       -0.0822
     18 C          66.3740   93.0436   16.4431 C.ar    1  UNL1        0.0228
     19 C          65.5184   91.9821   15.8176 C.ar    1  UNL1        0.0599
     20 CL         64.1041   91.7903   16.2789 Cl      1  UNL1       -0.0822
     21 C          64.8431   91.5754   12.0358 C.ar    1  UNL1        0.0015
     22 C          64.2522   91.7944   10.6746 C.ar    1  UNL1        0.0009
     23 C          64.4908   93.0875    9.9526 C.ar    1  UNL1        0.0114
     24 C          65.3202   94.1614   10.5919 C.ar    1  UNL1        0.0577
     25 CL         65.5587   95.4544    9.8700 Cl      1  UNL1       -0.0822
     26 C          65.9110   93.9424   11.9532 C.ar    1  UNL1        0.0114
     27 C          65.6725   92.6494   12.6751 C.ar    1  UNL1        0.0009
     28 C          60.6759   87.7177   10.7766 C.2     1  UNL1        0.2655
     29 O          59.9310   88.1059   12.0194 O.2     1  UNL1       -0.2684
     30 N          62.0379   87.0979   10.8813 N.am    1  UNL1       -0.2972
     31 H          62.5268   86.8431   10.0656 H       1  UNL1        0.1500
     32 C          59.2681   89.9853    6.2207 C.3     1  UNL1        0.0515
     33 C          59.4117   88.9916    7.3350 C.ar    1  UNL1        0.0536
     34 C          60.1855   89.1953    8.6038 C.ar    1  UNL1        0.0395
     35 C          60.0588   87.9492    9.4292 C.ar    1  UNL1        0.1549
     36 N          59.2067   86.9754    8.6706 N.ar    1  UNL1       -0.1683
     37 N          58.8068   87.6195    7.3763 N.ar    1  UNL1       -0.2796
     38 H          58.2457   87.2132    6.6768 H       1  UNL1        0.1886
@<TRIPOS>BOND
     1    32    33    1
     2    33    34   ar
     3    34    35   ar
     4    35    28    1
     5    28    29    2
     6    28    30   am
     7     1    30    1
     8     1     2    1
     9     2     3    1
    10     3     4    1
    11     3     5    1
    12     3     6    1
    13     6     7    1
    14     7     8   ar
    15     8     9   ar
    16     9    13    1
    17    13    14   ar
    18    14    15   ar
    19    15    16   ar
    20    16    17    1
    21    16    18   ar
    22    18    19   ar
    23    19    20    1
    24     9    10   ar
    25    10    21    1
    26    21    22   ar
    27    22    23   ar
    28    23    24   ar
    29    24    25    1
    30    24    26   ar
    31    26    27   ar
    32    10    11   ar
    33    11    12   ar
    34    35    36   ar
    35    36    37   ar
    36    37    33   ar
    37    12     1    1
    38    12     7   ar
    39    19    13   ar
    40    27    21   ar
    41    30    31    1
    42    37    38    1
@<TRIPOS>MOLECULE
*****
 38 42 0 0 0
SMALL
GASTEIGER

@<TRIPOS>ATOM
      1 C          61.8569   88.1831   11.1260 C.3     1  UNL1        0.1024
      2 C          60.8109   87.8676   10.0982 C.3     1  UNL1        0.0643
      3 C          60.6001   88.7907    8.9349 C.3     1  UNL1        0.1368
      4 C          60.0305   89.3513    7.6655 C.3     1  UNL1        0.0437
      5 C          59.5671   87.7468    8.6295 C.3     1  UNL1        0.0437
      6 O          61.4352   90.0293    8.7994 O.3     1  UNL1       -0.4676
      7 C          62.4812   90.3449    9.8272 C.ar    1  UNL1        0.2219
      8 N          63.3163   91.5835    9.6916 N.ar    1  UNL1       -0.2119
      9 C          64.3622   91.8990   10.7194 C.ar    1  UNL1        0.0851
     10 C          64.5731   90.9759   11.8828 C.ar    1  UNL1        0.0177
     11 C          63.7380   89.7372   12.0184 C.ar    1  UNL1        0.0034
     12 C          62.6920   89.4217   10.9905 C.ar    1  UNL1        0.0488
     13 C          65.1973   93.1376   10.5839 C.ar    1  UNL1        0.0284
     14 C          64.6780   94.4513   11.0887 C.ar    1  UNL1        0.0032
     15 C          65.5132   95.6899   10.9532 C.ar    1  UNL1        0.0115
     16 C          66.8676   95.6149   10.3128 C.ar    1  UNL1        0.0585
     17 CL         67.7027   96.8535   10.1773 Cl      1  UNL1       -0.0822
     18 C          67.3868   94.3013    9.8080 C.ar    1  UNL1        0.0228
     19 C          66.5517   93.0627    9.9436 C.ar    1  UNL1        0.0599
     20 CL         67.0709   91.7491    9.4388 Cl      1  UNL1       -0.0822
     21 C          65.6190   91.2914   12.9106 C.ar    1  UNL1        0.0015
     22 C          67.0231   91.5991   12.4818 C.ar    1  UNL1        0.0009
     23 C          68.0691   91.9147   13.5097 C.ar    1  UNL1        0.0114
     24 C          67.7110   91.9224   14.9663 C.ar    1  UNL1        0.0577
     25 CL         68.7569   92.2379   15.9941 Cl      1  UNL1       -0.0822
     26 C          66.3069   91.6147   15.3951 C.ar    1  UNL1        0.0114
     27 C          65.2609   91.2992   14.3673 C.ar    1  UNL1        0.0009
     28 C          62.5242   85.8504   12.0552 C.2     1  UNL1        0.2655
     29 O          62.7698   85.3640   10.6576 O.2     1  UNL1       -0.2684
     30 N          62.0677   87.2600   12.2894 N.am    1  UNL1       -0.2972
     31 H          61.9065   87.5792   13.2067 H       1  UNL1        0.1500
     32 C          63.0647   81.4739   14.9594 C.3     1  UNL1        0.0515
     33 C          62.9835   82.9156   14.5534 C.ar    1  UNL1        0.0536
     34 C          62.7359   83.4282   13.1657 C.ar    1  UNL1        0.0395
     35 C          62.7351   84.9273   13.2185 C.ar    1  UNL1        0.1549
     36 N          62.9822   85.3412   14.6390 N.ar    1  UNL1       -0.1683
     37 N          63.1357   84.0979   15.4640 N.ar    1  UNL1       -0.2796
     38 H          63.3064   84.0639   16.4330 H       1  UNL1        0.1886
@<TRIPOS>BOND
     1    32    33    1
     2    33    34   ar
     3    34    35   ar
     4    35    28    1
     5    28    29    2
     6    28    30   am
     7     1    30    1
     8     1     2    1
     9     2     3    1
    10     3     4    1
    11     3     5    1
    12     3     6    1
    13     6     7    1
    14     7     8   ar
    15     8     9   ar
    16     9    13    1
    17    13    14   ar
    18    14    15   ar
    19    15    16   ar
    20    16    17    1
    21    16    18   ar
    22    18    19   ar
    23    19    20    1
    24     9    10   ar
    25    10    21    1
    26    21    22   ar
    27    22    23   ar
    28    23    24   ar
    29    24    25    1
    30    24    26   ar
    31    26    27   ar
    32    10    11   ar
    33    11    12   ar
    34    35    36   ar
    35    36    37   ar
    36    37    33   ar
    37    12     1    1
    38    12     7   ar
    39    19    13   ar
    40    27    21   ar
    41    30    31    1
    42    37    38    1
@<TRIPOS>MOLECULE
*****
 38 42 0 0 0
SMALL
GASTEIGER

@<TRIPOS>ATOM
      1 C          62.2236   89.0095   12.3020 C.3     1  UNL1        0.1024
      2 C          61.1790   88.4250   11.3980 C.3     1  UNL1        0.0643
      3 C          61.0050   88.9612   10.0080 C.3     1  UNL1        0.1368
      4 C          60.4632   89.1284    8.6193 C.3     1  UNL1        0.0437
      5 C          59.9462   87.8987   10.0117 C.3     1  UNL1        0.0437
      6 O          61.8755   90.0819    9.5220 O.3     1  UNL1       -0.4676
      7 C          62.9201   90.6663   10.4259 C.ar    1  UNL1        0.2219
      8 N          63.7907   91.7870    9.9398 N.ar    1  UNL1       -0.2119
      9 C          64.8353   92.3714   10.8437 C.ar    1  UNL1        0.0851
     10 C          65.0094   91.8353   12.2338 C.ar    1  UNL1        0.0177
     11 C          64.1389   90.7146   12.7199 C.ar    1  UNL1        0.0034
     12 C          63.0942   90.1301   11.8159 C.ar    1  UNL1        0.0488
     13 C          65.7059   93.4921   10.3576 C.ar    1  UNL1        0.0284
     14 C          65.1943   94.9021   10.3777 C.ar    1  UNL1        0.0032
     15 C          66.0649   96.0227    9.8916 C.ar    1  UNL1        0.0115
     16 C          67.4470   95.7334    9.3855 C.ar    1  UNL1        0.0585
     17 CL         68.3176   96.8540    8.8994 Cl      1  UNL1       -0.0822
     18 C          67.9585   94.3235    9.3655 C.ar    1  UNL1        0.0228
     19 C          67.0880   93.2028    9.8516 C.ar    1  UNL1        0.0599
     20 CL         67.5995   91.7929    9.8316 Cl      1  UNL1       -0.0822
     21 C          66.0540   92.4197   13.1377 C.ar    1  UNL1        0.0015
     22 C          67.0542   91.5235   13.8059 C.ar    1  UNL1        0.0009
     23 C          68.0989   92.1080   14.7099 C.ar    1  UNL1        0.0114
     24 C          68.1433   93.5887   14.9456 C.ar    1  UNL1        0.0577
     25 CL         69.1879   94.1732   15.8496 Cl      1  UNL1       -0.0822
     26 C          67.1432   94.4849   14.2775 C.ar    1  UNL1        0.0114
     27 C          66.0985   93.9004   13.3735 C.ar    1  UNL1        0.0009
     28 C          63.1152   87.1743   13.9104 C.2     1  UNL1        0.2655
     29 O          63.6586   86.4114   12.7387 O.2     1  UNL1       -0.2684
     30 N          62.3977   88.4733   13.6921 N.am    1  UNL1       -0.2972
     31 H          62.0411   88.9740   14.4610 H       1  UNL1        0.1500
     32 C          62.8302   86.6282   19.1546 C.3     1  UNL1        0.0515
     33 C          63.1583   86.3871   17.7109 C.ar    1  UNL1        0.0536
     34 C          62.7462   87.2519   16.5567 C.ar    1  UNL1        0.0395
     35 C          63.2893   86.6381   15.3004 C.ar    1  UNL1        0.1549
     36 N          64.0372   85.3939   15.6782 N.ar    1  UNL1       -0.1683
     37 N          63.9562   85.2388   17.1679 N.ar    1  UNL1       -0.2796
     38 H          64.3565   84.5110   17.6966 H       1  UNL1        0.1886
@<TRIPOS>BOND
     1    32    33    1
     2    33    34   ar
     3    34    35   ar
     4    35    28    1
     5    28    29    2
     6    28    30   am
     7     1    30    1
     8     1     2    1
     9     2     3    1
    10     3     4    1
    11     3     5    1
    12     3     6    1
    13     6     7    1
    14     7     8   ar
    15     8     9   ar
    16     9    13    1
    17    13    14   ar
    18    14    15   ar
    19    15    16   ar
    20    16    17    1
    21    16    18   ar
    22    18    19   ar
    23    19    20    1
    24     9    10   ar
    25    10    21    1
    26    21    22   ar
    27    22    23   ar
    28    23    24   ar
    29    24    25    1
    30    24    26   ar
    31    26    27   ar
    32    10    11   ar
    33    11    12   ar
    34    35    36   ar
    35    36    37   ar
    36    37    33   ar
    37    12     1    1
    38    12     7   ar
    39    19    13   ar
    40    27    21   ar
    41    30    31    1
    42    37    38    1
