@<TRIPOS>MOLECULE
*****
 25 28 0 0 0
SMALL
GASTEIGER

@<TRIPOS>ATOM
      1 N          63.0181   85.2269   15.3157 N.ar    1  UNL1       -0.2077
      2 C          62.4709   84.8199   16.6517 C.ar    1  UNL1        0.0999
      3 C          62.4607   86.0309   17.5368 C.ar    1  UNL1        0.0220
      4 C          63.0015   87.1863   16.7478 C.ar    1  UNL1        0.0187
      5 C          63.2248   88.6267   17.1021 C.ar    1  UNL1       -0.0030
      6 C          63.7927   89.5702   16.0835 C.ar    1  UNL1       -0.0246
      7 C          64.1372   89.0733   14.7109 C.ar    1  UNL1       -0.0232
      8 C          63.9139   87.6330   14.3566 C.ar    1  UNL1        0.0144
      9 C          63.3461   86.6894   15.3751 C.ar    1  UNL1        0.0822
     10 C          64.7092   89.8396   13.5550 C.3     1  UNL1        0.0431
     11 C          65.0778   91.2920   13.4866 C.3     1  UNL1        0.0733
     12 N          64.9656   92.3367   14.5570 N.3     1  UNL1       -0.2969
     13 C          64.4570   92.1873   15.9602 C.3     1  UNL1        0.0733
     14 C          63.9350   90.9560   16.6396 C.3     1  UNL1        0.0431
     15 H          64.3750   93.0603   14.1469 H       1  UNL1        0.1233
     16 O          64.3731   83.6764   14.8058 O.2     1  UNL1       -0.1475
     17 S          63.2047   84.3291   14.1286 S.O2    1  UNL1        0.0868
     18 O          62.0362   84.9819   13.4513 O.2     1  UNL1       -0.1475
     19 C          63.3912   83.4314   12.9415 C.ar    1  UNL1        0.1381
     20 C          64.2603   83.8685   11.7997 C.ar    1  UNL1        0.0213
     21 C          64.4468   82.9708   10.6126 C.ar    1  UNL1        0.0014
     22 C          63.7642   81.6359   10.5671 C.ar    1  UNL1        0.0009
     23 C          62.8950   81.1987   11.7089 C.ar    1  UNL1        0.0128
     24 C          62.7086   82.0965   12.8960 C.ar    1  UNL1        0.0767
     25 CL         61.8394   81.6593   14.0377 Cl      1  UNL1       -0.0808
@<TRIPOS>BOND
     1    16    17    2
     2    17    18    2
     3    17    19    1
     4    19    20   ar
     5    20    21   ar
     6    21    22   ar
     7    22    23   ar
     8    23    24   ar
     9    24    25    1
    10    17     1    1
    11     1     2   ar
    12     2     3   ar
    13     3     4   ar
    14     4     5   ar
    15     5     6   ar
    16     6     7   ar
    17     7     8   ar
    18     8     9   ar
    19     7    10    1
    20    10    11    1
    21    11    12    1
    22    12    13    1
    23    13    14    1
    24    24    19   ar
    25     9     1   ar
    26     9     4   ar
    27    14     6    1
    28    12    15    1
@<TRIPOS>MOLECULE
*****
 25 28 0 0 0
SMALL
GASTEIGER

@<TRIPOS>ATOM
      1 N          63.5041   87.7622   15.7256 N.ar    1  UNL1       -0.2077
      2 C          63.0981   87.7119   17.1687 C.ar    1  UNL1        0.0999
      3 C          62.6710   86.3084   17.4814 C.ar    1  UNL1        0.0220
      4 C          62.8130   85.4914   16.2315 C.ar    1  UNL1        0.0187
      5 C          62.5399   84.0452   15.9413 C.ar    1  UNL1       -0.0030
      6 C          62.7817   83.4977   14.5658 C.ar    1  UNL1       -0.0246
      7 C          63.2965   84.3962   13.4808 C.ar    1  UNL1       -0.0232
      8 C          63.5696   85.8423   13.7709 C.ar    1  UNL1        0.0144
      9 C          63.3278   86.3899   15.1463 C.ar    1  UNL1        0.0822
     10 C          63.6034   84.0565   12.0522 C.3     1  UNL1        0.0431
     11 C          63.4713   82.7343   11.3562 C.3     1  UNL1        0.0733
     12 N          62.9996   81.4254   11.9167 N.3     1  UNL1       -0.2969
     13 C          62.5435   81.1153   13.3116 C.3     1  UNL1        0.0733
     14 C          62.4466   82.0375   14.4906 C.3     1  UNL1        0.0431
     15 H          63.7747   80.7830   11.7525 H       1  UNL1        0.1233
     16 O          62.7572   89.7175   15.3805 O.2     1  UNL1       -0.1475
     17 S          63.9993   88.9725   14.9906 S.O2    1  UNL1        0.0868
     18 O          65.2415   88.2273   14.6008 O.2     1  UNL1       -0.1475
     19 C          64.4946   90.1826   14.2557 C.ar    1  UNL1        0.1381
     20 C          65.4544   91.1237   14.9214 C.ar    1  UNL1        0.0213
     21 C          65.9497   92.3338   14.1865 C.ar    1  UNL1        0.0014
     22 C          65.4854   92.6030   12.7858 C.ar    1  UNL1        0.0009
     23 C          64.5256   91.6618   12.1201 C.ar    1  UNL1        0.0128
     24 C          64.0303   90.4517   12.8550 C.ar    1  UNL1        0.0767
     25 CL         63.0705   89.5107   12.1892 Cl      1  UNL1       -0.0808
@<TRIPOS>BOND
     1    16    17    2
     2    17    18    2
     3    17    19    1
     4    19    20   ar
     5    20    21   ar
     6    21    22   ar
     7    22    23   ar
     8    23    24   ar
     9    24    25    1
    10    17     1    1
    11     1     2   ar
    12     2     3   ar
    13     3     4   ar
    14     4     5   ar
    15     5     6   ar
    16     6     7   ar
    17     7     8   ar
    18     8     9   ar
    19     7    10    1
    20    10    11    1
    21    11    12    1
    22    12    13    1
    23    13    14    1
    24    24    19   ar
    25     9     1   ar
    26     9     4   ar
    27    14     6    1
    28    12    15    1
@<TRIPOS>MOLECULE
*****
 25 28 0 0 0
SMALL
GASTEIGER

@<TRIPOS>ATOM
      1 N          63.8882   84.8788   13.8450 N.ar    1  UNL1       -0.2077
      2 C          64.6311   85.1885   15.1108 C.ar    1  UNL1        0.0999
      3 C          64.7482   86.6794   15.2265 C.ar    1  UNL1        0.0220
      4 C          64.0777   87.2912   14.0324 C.ar    1  UNL1        0.0187
      5 C          63.8824   88.7178   13.6122 C.ar    1  UNL1       -0.0030
      6 C          63.1555   89.0316   12.3380 C.ar    1  UNL1       -0.0246
      7 C          62.6240   87.9188   11.4843 C.ar    1  UNL1       -0.0232
      8 C          62.8193   86.4922   11.9044 C.ar    1  UNL1        0.0144
      9 C          63.5461   86.1783   13.1785 C.ar    1  UNL1        0.0822
     10 C          61.8763   88.0105   10.1871 C.3     1  UNL1        0.0431
     11 C          61.4756   89.2379    9.4234 C.3     1  UNL1        0.0733
     12 N          61.7235   90.6764    9.7683 N.3     1  UNL1       -0.2969
     13 C          62.4334   91.2431   10.9620 C.3     1  UNL1        0.0733
     14 C          63.0707   90.5111   12.1057 C.3     1  UNL1        0.0431
     15 H          60.7940   91.0951    9.8012 H       1  UNL1        0.1233
     16 O          64.9681   83.3203   12.8938 O.2     1  UNL1       -0.1475
     17 S          63.5471   83.5099   13.3352 S.O2    1  UNL1        0.0868
     18 O          62.1261   83.6997   13.7766 O.2     1  UNL1       -0.1475
     19 C          63.2060   82.1411   12.8254 C.ar    1  UNL1        0.1381
     20 C          62.7820   81.0679   13.7839 C.ar    1  UNL1        0.0213
     21 C          62.4408   79.6992   13.2741 C.ar    1  UNL1        0.0014
     22 C          62.5236   79.4034   11.8059 C.ar    1  UNL1        0.0009
     23 C          62.9477   80.4765   10.8474 C.ar    1  UNL1        0.0128
     24 C          63.2888   81.8453   11.3572 C.ar    1  UNL1        0.0767
     25 CL         63.7128   82.9184   10.3987 Cl      1  UNL1       -0.0808
@<TRIPOS>BOND
     1    16    17    2
     2    17    18    2
     3    17    19    1
     4    19    20   ar
     5    20    21   ar
     6    21    22   ar
     7    22    23   ar
     8    23    24   ar
     9    24    25    1
    10    17     1    1
    11     1     2   ar
    12     2     3   ar
    13     3     4   ar
    14     4     5   ar
    15     5     6   ar
    16     6     7   ar
    17     7     8   ar
    18     8     9   ar
    19     7    10    1
    20    10    11    1
    21    11    12    1
    22    12    13    1
    23    13    14    1
    24    24    19   ar
    25     9     1   ar
    26     9     4   ar
    27    14     6    1
    28    12    15    1
@<TRIPOS>MOLECULE
*****
 25 28 0 0 0
SMALL
GASTEIGER

@<TRIPOS>ATOM
      1 N          63.0486   85.9134   12.5731 N.ar    1  UNL1       -0.2077
      2 C          63.7933   86.9488   13.3626 C.ar    1  UNL1        0.0999
      3 C          63.4903   88.2920   12.7675 C.ar    1  UNL1        0.0220
      4 C          62.5585   88.0867   11.6102 C.ar    1  UNL1        0.0187
      5 C          61.9232   89.0484   10.6502 C.ar    1  UNL1       -0.0030
      6 C          61.0149   88.5400    9.5701 C.ar    1  UNL1       -0.0246
      7 C          60.7419   87.0701    9.4500 C.ar    1  UNL1       -0.0232
      8 C          61.3771   86.1083   10.4099 C.ar    1  UNL1        0.0144
      9 C          62.2854   86.6166   11.4901 C.ar    1  UNL1        0.0822
     10 C          59.8749   86.3581    8.4542 C.3     1  UNL1        0.0431
     11 C          59.0668   86.9405    7.3326 C.3     1  UNL1        0.0733
     12 N          58.9262   88.3785    6.9298 N.3     1  UNL1       -0.2969
     13 C          59.5589   89.5894    7.5491 C.3     1  UNL1        0.0733
     14 C          60.4884   89.6613    8.7241 C.3     1  UNL1        0.0431
     15 H          57.9238   88.5606    6.9788 H       1  UNL1        0.1233
     16 O          62.0473   84.6075   13.9117 O.2     1  UNL1       -0.1475
     17 S          63.0643   84.4344   12.8228 S.O2    1  UNL1        0.0868
     18 O          64.0813   84.2614   11.7338 O.2     1  UNL1       -0.1475
     19 C          63.0800   82.9555   13.0724 C.ar    1  UNL1        0.1381
     20 C          62.4637   82.0199   12.0749 C.ar    1  UNL1        0.0213
     21 C          62.4795   80.5409   12.3245 C.ar    1  UNL1        0.0014
     22 C          63.1114   79.9974   13.5715 C.ar    1  UNL1        0.0009
     23 C          63.7277   80.9329   14.5691 C.ar    1  UNL1        0.0128
     24 C          63.7120   82.4119   14.3195 C.ar    1  UNL1        0.0767
     25 CL         64.3282   83.3474   15.3170 Cl      1  UNL1       -0.0808
@<TRIPOS>BOND
     1    16    17    2
     2    17    18    2
     3    17    19    1
     4    19    20   ar
     5    20    21   ar
     6    21    22   ar
     7    22    23   ar
     8    23    24   ar
     9    24    25    1
    10    17     1    1
    11     1     2   ar
    12     2     3   ar
    13     3     4   ar
    14     4     5   ar
    15     5     6   ar
    16     6     7   ar
    17     7     8   ar
    18     8     9   ar
    19     7    10    1
    20    10    11    1
    21    11    12    1
    22    12    13    1
    23    13    14    1
    24    24    19   ar
    25     9     1   ar
    26     9     4   ar
    27    14     6    1
    28    12    15    1
@<TRIPOS>MOLECULE
*****
 25 28 0 0 0
SMALL
GASTEIGER

@<TRIPOS>ATOM
      1 N          63.2056   88.7791   12.3113 N.ar    1  UNL1       -0.2077
      2 C          62.5055   89.1201   11.0293 C.ar    1  UNL1        0.0999
      3 C          62.0241   87.8416   10.4098 C.ar    1  UNL1        0.0220
      4 C          62.4267   86.7105   11.3089 C.ar    1  UNL1        0.0187
      5 C          62.2226   85.2278   11.2093 C.ar    1  UNL1       -0.0030
      6 C          62.7489   84.3244   12.2850 C.ar    1  UNL1       -0.0246
      7 C          63.4790   84.9037   13.4601 C.ar    1  UNL1       -0.0232
      8 C          63.6831   86.3864   13.5598 C.ar    1  UNL1        0.0144
      9 C          63.1569   87.2898   12.4841 C.ar    1  UNL1        0.0822
     10 C          64.0798   84.1878   14.6335 C.3     1  UNL1        0.0431
     11 C          64.0986   82.7158   14.9213 C.3     1  UNL1        0.0733
     12 N          63.5214   81.5962   14.1070 N.3     1  UNL1       -0.2969
     13 C          62.7828   81.6719   12.8036 C.3     1  UNL1        0.0733
     14 C          62.4390   82.8861   11.9927 C.3     1  UNL1        0.0431
     15 H          62.8743   81.1267   14.7405 H       1  UNL1        0.1233
     16 O          63.1749   90.8885   12.5334 O.2     1  UNL1       -0.1475
     17 S          63.8426   89.7557   13.2550 S.O2    1  UNL1        0.0868
     18 O          64.5104   88.6228   13.9766 O.2     1  UNL1       -0.1475
     19 C          64.4796   90.7322   14.1986 C.ar    1  UNL1        0.1381
     20 C          65.5980   91.6126   13.7248 C.ar    1  UNL1        0.0213
     21 C          66.2350   92.5891   14.6685 C.ar    1  UNL1        0.0014
     22 C          65.7539   92.6854   16.0859 C.ar    1  UNL1        0.0009
     23 C          64.6355   91.8050   16.5597 C.ar    1  UNL1        0.0128
     24 C          63.9985   90.8285   15.6161 C.ar    1  UNL1        0.0767
     25 CL         62.8802   89.9482   16.0899 Cl      1  UNL1       -0.0808
@<TRIPOS>BOND
     1    16    17    2
     2    17    18    2
     3    17    19    1
     4    19    20   ar
     5    20    21   ar
     6    21    22   ar
     7    22    23   ar
     8    23    24   ar
     9    24    25    1
    10    17     1    1
    11     1     2   ar
    12     2     3   ar
    13     3     4   ar
    14     4     5   ar
    15     5     6   ar
    16     6     7   ar
    17     7     8   ar
    18     8     9   ar
    19     7    10    1
    20    10    11    1
    21    11    12    1
    22    12    13    1
    23    13    14    1
    24    24    19   ar
    25     9     1   ar
    26     9     4   ar
    27    14     6    1
    28    12    15    1
@<TRIPOS>MOLECULE
*****
 25 28 0 0 0
SMALL
GASTEIGER

@<TRIPOS>ATOM
      1 N          63.4745   87.4071   13.1734 N.ar    1  UNL1       -0.2077
      2 C          63.8093   85.9976   13.5623 C.ar    1  UNL1        0.0999
      3 C          63.1551   85.0767   12.5754 C.ar    1  UNL1        0.0220
      4 C          62.4160   85.9170   11.5767 C.ar    1  UNL1        0.0187
      5 C          61.5886   85.5567   10.3785 C.ar    1  UNL1       -0.0030
      6 C          60.9587   86.6368    9.5498 C.ar    1  UNL1       -0.0246
      7 C          61.1561   88.0770    9.9194 C.ar    1  UNL1       -0.0232
      8 C          61.9834   88.4373   11.1176 C.ar    1  UNL1        0.0144
      9 C          62.6134   87.3573   11.9463 C.ar    1  UNL1        0.0822
     10 C          60.6214   89.3000    9.2348 C.3     1  UNL1        0.0431
     11 C          59.7572   89.3846    8.0116 C.3     1  UNL1        0.0733
     12 N          59.2144   88.2673    7.1710 N.3     1  UNL1       -0.2969
     13 C          59.4015   86.7893    7.3458 C.3     1  UNL1        0.0733
     14 C          60.1778   86.0636    8.4045 C.3     1  UNL1        0.0431
     15 H          59.5648   88.4600    6.2327 H       1  UNL1        0.1233
     16 O          64.8972   87.8372   14.6871 O.2     1  UNL1       -0.1475
     17 S          63.9222   88.6486   13.8865 S.O2    1  UNL1        0.0868
     18 O          62.9472   89.4599   13.0858 O.2     1  UNL1       -0.1475
     19 C          64.3698   89.8900   14.5994 C.ar    1  UNL1        0.1381
     20 C          65.4266   90.7641   13.9918 C.ar    1  UNL1        0.0213
     21 C          65.8742   92.0056   14.7048 C.ar    1  UNL1        0.0014
     22 C          65.2652   92.3731   16.0254 C.ar    1  UNL1        0.0009
     23 C          64.2083   91.4989   16.6330 C.ar    1  UNL1        0.0128
     24 C          63.7607   90.2575   15.9200 C.ar    1  UNL1        0.0767
     25 CL         62.7040   89.3834   16.5277 Cl      1  UNL1       -0.0808
@<TRIPOS>BOND
     1    16    17    2
     2    17    18    2
     3    17    19    1
     4    19    20   ar
     5    20    21   ar
     6    21    22   ar
     7    22    23   ar
     8    23    24   ar
     9    24    25    1
    10    17     1    1
    11     1     2   ar
    12     2     3   ar
    13     3     4   ar
    14     4     5   ar
    15     5     6   ar
    16     6     7   ar
    17     7     8   ar
    18     8     9   ar
    19     7    10    1
    20    10    11    1
    21    11    12    1
    22    12    13    1
    23    13    14    1
    24    24    19   ar
    25     9     1   ar
    26     9     4   ar
    27    14     6    1
    28    12    15    1
@<TRIPOS>MOLECULE
*****
 25 28 0 0 0
SMALL
GASTEIGER

@<TRIPOS>ATOM
      1 N          63.2174   88.1484   12.5004 N.ar    1  UNL1       -0.2077
      2 C          63.4322   87.4106   13.7886 C.ar    1  UNL1        0.0999
      3 C          64.2515   88.2839   14.6920 C.ar    1  UNL1        0.0220
      4 C          64.5431   89.5615   13.9620 C.ar    1  UNL1        0.0187
      5 C          65.3081   90.7903   14.3558 C.ar    1  UNL1       -0.0030
      6 C          65.4339   91.9353   13.3950 C.ar    1  UNL1       -0.0246
      7 C          64.7948   91.8515   12.0406 C.ar    1  UNL1       -0.0232
      8 C          64.0299   90.6228   11.6468 C.ar    1  UNL1        0.0144
      9 C          63.9040   89.4777   12.6076 C.ar    1  UNL1        0.0822
     10 C          64.7984   92.8709   10.9401 C.3     1  UNL1        0.0431
     11 C          65.4421   94.2257   10.9224 C.3     1  UNL1        0.0733
     12 N          66.2409   94.8957   12.0006 N.3     1  UNL1       -0.2969
     13 C          66.5936   94.3765   13.3630 C.3     1  UNL1        0.0733
     14 C          66.2345   93.0590   13.9836 C.3     1  UNL1        0.0431
     15 H          65.7456   95.7691   12.1803 H       1  UNL1        0.1233
     16 O          62.7159   88.9353   10.5954 O.2     1  UNL1       -0.1475
     17 S          62.4507   87.6453   11.3134 S.O2    1  UNL1        0.0868
     18 O          62.1856   86.3553   12.0315 O.2     1  UNL1       -0.1475
     19 C          61.6840   87.1421   10.1264 C.ar    1  UNL1        0.1381
     20 C          62.3540   86.2494    9.1243 C.ar    1  UNL1        0.0213
     21 C          61.5873   85.7462    7.9373 C.ar    1  UNL1        0.0014
     22 C          60.1506   86.1357    7.7524 C.ar    1  UNL1        0.0009
     23 C          59.4806   87.0284    8.7545 C.ar    1  UNL1        0.0128
     24 C          60.2473   87.5316    9.9415 C.ar    1  UNL1        0.0767
     25 CL         59.5773   88.4243   10.9435 Cl      1  UNL1       -0.0808
@<TRIPOS>BOND
     1    16    17    2
     2    17    18    2
     3    17    19    1
     4    19    20   ar
     5    20    21   ar
     6    21    22   ar
     7    22    23   ar
     8    23    24   ar
     9    24    25    1
    10    17     1    1
    11     1     2   ar
    12     2     3   ar
    13     3     4   ar
    14     4     5   ar
    15     5     6   ar
    16     6     7   ar
    17     7     8   ar
    18     8     9   ar
    19     7    10    1
    20    10    11    1
    21    11    12    1
    22    12    13    1
    23    13    14    1
    24    24    19   ar
    25     9     1   ar
    26     9     4   ar
    27    14     6    1
    28    12    15    1
@<TRIPOS>MOLECULE
*****
 25 28 0 0 0
SMALL
GASTEIGER

@<TRIPOS>ATOM
      1 N          62.3585   85.6105   11.1057 N.ar    1  UNL1       -0.2077
      2 C          61.6409   85.7677    9.7979 C.ar    1  UNL1        0.0999
      3 C          61.6152   87.2280    9.4559 C.ar    1  UNL1        0.0220
      4 C          62.3170   87.9732   10.5523 C.ar    1  UNL1        0.0187
      5 C          62.5971   89.4330   10.7540 C.ar    1  UNL1       -0.0030
      6 C          63.3366   89.8931   11.9753 C.ar    1  UNL1       -0.0246
      7 C          63.7959   88.8934   12.9948 C.ar    1  UNL1       -0.0232
      8 C          63.5158   87.4337   12.7933 C.ar    1  UNL1        0.0144
      9 C          62.7764   86.9735   11.5720 C.ar    1  UNL1        0.0822
     10 C          64.5425   89.1367   14.2729 C.3     1  UNL1        0.0431
     11 C          65.0142   90.4398   14.8470 C.3     1  UNL1        0.0733
     12 N          64.8557   91.8213   14.2848 N.3     1  UNL1       -0.2969
     13 C          64.1864   92.2411   13.0097 C.3     1  UNL1        0.0733
     14 C          63.5104   91.3830   11.9819 C.3     1  UNL1        0.0431
     15 H          65.8091   92.1740   14.2011 H       1  UNL1        0.1233
     16 O          63.3389   83.7938   10.6176 O.2     1  UNL1       -0.1475
     17 S          62.6135   84.3172   11.8216 S.O2    1  UNL1        0.0868
     18 O          61.8880   84.8408   13.0256 O.2     1  UNL1       -0.1475
     19 C          62.8684   83.0241   12.5375 C.ar    1  UNL1        0.1381
     20 C          62.0160   81.8247   12.2461 C.ar    1  UNL1        0.0213
     21 C          62.2709   80.5315   12.9620 C.ar    1  UNL1        0.0014
     22 C          63.3783   80.4376   13.9695 C.ar    1  UNL1        0.0009
     23 C          64.2307   81.6370   14.2609 C.ar    1  UNL1        0.0128
     24 C          63.9758   82.9301   13.5450 C.ar    1  UNL1        0.0767
     25 CL         64.8282   84.1294   13.8365 Cl      1  UNL1       -0.0808
@<TRIPOS>BOND
     1    16    17    2
     2    17    18    2
     3    17    19    1
     4    19    20   ar
     5    20    21   ar
     6    21    22   ar
     7    22    23   ar
     8    23    24   ar
     9    24    25    1
    10    17     1    1
    11     1     2   ar
    12     2     3   ar
    13     3     4   ar
    14     4     5   ar
    15     5     6   ar
    16     6     7   ar
    17     7     8   ar
    18     8     9   ar
    19     7    10    1
    20    10    11    1
    21    11    12    1
    22    12    13    1
    23    13    14    1
    24    24    19   ar
    25     9     1   ar
    26     9     4   ar
    27    14     6    1
    28    12    15    1
@<TRIPOS>MOLECULE
*****
 25 28 0 0 0
SMALL
GASTEIGER

@<TRIPOS>ATOM
      1 N          63.8186   89.2630   15.2941 N.ar    1  UNL1       -0.2077
      2 C          63.3987   89.5463   16.7060 C.ar    1  UNL1        0.0999
      3 C          63.0340   88.2423   17.3516 C.ar    1  UNL1        0.0220
      4 C          63.2285   87.1532   16.3387 C.ar    1  UNL1        0.0187
      5 C          63.0267   85.6685   16.4100 C.ar    1  UNL1       -0.0030
      6 C          63.3098   84.8147   15.2096 C.ar    1  UNL1       -0.0246
      7 C          63.7947   85.4454   13.9381 C.ar    1  UNL1       -0.0232
      8 C          63.9965   86.9301   13.8668 C.ar    1  UNL1        0.0144
      9 C          63.7134   87.7840   15.0671 C.ar    1  UNL1        0.0822
     10 C          64.1338   84.7831   12.6356 C.3     1  UNL1        0.0431
     11 C          64.0716   83.3264   12.2831 C.3     1  UNL1        0.0733
     12 N          63.6551   82.1724   13.1459 N.3     1  UNL1       -0.2969
     13 C          63.1978   82.1898   14.5744 C.3     1  UNL1        0.0733
     14 C          63.0441   83.3658   15.4929 C.3     1  UNL1        0.0431
     15 H          64.4612   81.5474   13.1433 H       1  UNL1        0.1233
     16 O          65.6971   89.9518   14.5894 O.2     1  UNL1       -0.1475
     17 S          64.2653   90.2801   14.2861 S.O2    1  UNL1        0.0868
     18 O          62.8334   90.6083   13.9829 O.2     1  UNL1       -0.1475
     19 C          64.7119   91.2971   13.2781 C.ar    1  UNL1        0.1381
     20 C          64.2379   91.2040   11.8580 C.ar    1  UNL1        0.0213
     21 C          64.6844   92.2210   10.8501 C.ar    1  UNL1        0.0014
     22 C          65.6050   93.3313   11.2620 C.ar    1  UNL1        0.0009
     23 C          66.0791   93.4245   12.6822 C.ar    1  UNL1        0.0128
     24 C          65.6325   92.4074   13.6901 C.ar    1  UNL1        0.0767
     25 CL         66.1066   92.5006   15.1102 Cl      1  UNL1       -0.0808
@<TRIPOS>BOND
     1    16    17    2
     2    17    18    2
     3    17    19    1
     4    19    20   ar
     5    20    21   ar
     6    21    22   ar
     7    22    23   ar
     8    23    24   ar
     9    24    25    1
    10    17     1    1
    11     1     2   ar
    12     2     3   ar
    13     3     4   ar
    14     4     5   ar
    15     5     6   ar
    16     6     7   ar
    17     7     8   ar
    18     8     9   ar
    19     7    10    1
    20    10    11    1
    21    11    12    1
    22    12    13    1
    23    13    14    1
    24    24    19   ar
    25     9     1   ar
    26     9     4   ar
    27    14     6    1
    28    12    15    1
