@<TRIPOS>MOLECULE
*****
 32 34 0 0 0
SMALL
GASTEIGER

@<TRIPOS>ATOM
      1 C          63.3654   90.8745    3.5324 C.3     1  UNL1        0.0323
      2 C          61.9449   91.2885    3.7790 C.ar    1  UNL1       -0.0086
      3 C          61.0967   90.5189    4.7475 C.ar    1  UNL1       -0.0051
      4 C          59.6762   90.9329    4.9941 C.ar    1  UNL1        0.0060
      5 C          59.1040   92.1166    4.2721 C.ar    1  UNL1        0.0562
      6 CL         57.6835   92.5307    4.5187 Cl      1  UNL1       -0.0825
      7 C          59.9522   92.8863    3.3036 C.ar    1  UNL1        0.0255
      8 C          61.3727   92.4722    3.0570 C.ar    1  UNL1        0.0473
      9 N          62.2209   93.2420    2.0884 N.am    1  UNL1       -0.2805
     10 C          62.0890   92.9945    0.6148 C.2     1  UNL1        0.2525
     11 O          61.1090   91.9774    0.1098 O.2     1  UNL1       -0.2697
     12 H          62.8641   93.9095    2.4198 H       1  UNL1        0.1552
     13 C          62.9373   93.7642   -0.3538 C.ar    1  UNL1        0.0881
     14 C          62.9140   93.4157   -1.8125 C.ar    1  UNL1        0.0134
     15 C          63.7622   94.1854   -2.7811 C.ar    1  UNL1        0.0308
     16 I          63.7389   93.8368   -4.2399 I       1  UNL1       -0.0425
     17 C          64.6336   95.3035   -2.2910 C.ar    1  UNL1        0.0146
     18 C          64.6568   95.6521   -0.8322 C.ar    1  UNL1        0.0643
     19 I          65.5283   96.7703   -0.3421 I       1  UNL1       -0.0394
     20 C          63.8087   94.8824    0.1364 C.ar    1  UNL1        0.1432
     21 O          63.8319   95.2309    1.5952 O.3     1  UNL1       -0.5049
     22 H          64.3762   95.9295    1.9013 H       1  UNL1        0.2922
     23 C          58.8280   90.1632    5.9627 C.3     1  UNL1        0.1365
     24 C          59.4753   89.3094    7.0125 C.ar    1  UNL1       -0.0042
     25 C          59.4138   87.8144    6.9061 C.ar    1  UNL1       -0.0021
     26 C          60.0611   86.9606    7.9559 C.ar    1  UNL1        0.0111
     27 C          60.7698   87.6017    9.1120 C.ar    1  UNL1        0.0577
     28 CL         61.4171   86.7479   10.1618 Cl      1  UNL1       -0.0822
     29 C          60.8313   89.0967    9.2184 C.ar    1  UNL1        0.0111
     30 C          60.1840   89.9505    8.1686 C.ar    1  UNL1       -0.0021
     31 C          57.3326   90.2474    5.8815 C.1     1  UNL1        0.0811
     32 N          55.8371   90.3314    5.8003 N.1     1  UNL1       -0.1952
@<TRIPOS>BOND
     1     1     2    1
     2     2     3   ar
     3     3     4   ar
     4     4    23    1
     5    23    31    1
     6    31    32    3
     7    23    24    1
     8    24    25   ar
     9    25    26   ar
    10    26    27   ar
    11    27    28    1
    12    27    29   ar
    13    29    30   ar
    14     4     5   ar
    15     5     6    1
    16     5     7   ar
    17     7     8   ar
    18     8     9    1
    19     9    10   am
    20    10    11    2
    21    10    13    1
    22    13    14   ar
    23    14    15   ar
    24    15    16    1
    25    15    17   ar
    26    17    18   ar
    27    18    19    1
    28    18    20   ar
    29    20    21    1
    30     8     2   ar
    31    20    13   ar
    32    30    24   ar
    33     9    12    1
    34    21    22    1
@<TRIPOS>MOLECULE
*****
 32 34 0 0 0
SMALL
GASTEIGER

@<TRIPOS>ATOM
      1 C          61.5316   90.2648   10.5958 C.3     1  UNL1        0.0323
      2 C          60.8087   89.5242    9.5101 C.ar    1  UNL1       -0.0086
      3 C          60.2345   90.2740    8.3448 C.ar    1  UNL1       -0.0051
      4 C          59.5116   89.5334    7.2590 C.ar    1  UNL1        0.0060
      5 C          59.3630   88.0429    7.3385 C.ar    1  UNL1        0.0562
      6 CL         58.6401   87.3023    6.2527 Cl      1  UNL1       -0.0825
      7 C          59.9373   87.2931    8.5038 C.ar    1  UNL1        0.0255
      8 C          60.6602   88.0337    9.5895 C.ar    1  UNL1        0.0473
      9 N          61.2345   87.2838   10.7549 N.am    1  UNL1       -0.2805
     10 C          62.0964   86.0789   10.5201 C.2     1  UNL1        0.2525
     11 O          62.3841   85.6238    9.1200 O.2     1  UNL1       -0.2697
     12 H          61.0456   87.5825   11.6738 H       1  UNL1        0.1552
     13 C          62.6707   85.3290   11.6854 C.ar    1  UNL1        0.0881
     14 C          62.6140   83.8303   11.7143 C.ar    1  UNL1        0.0134
     15 C          63.1883   83.0804   12.8795 C.ar    1  UNL1        0.0308
     16 I          63.1316   81.5818   12.9084 I       1  UNL1       -0.0425
     17 C          63.8192   83.8291   14.0158 C.ar    1  UNL1        0.0146
     18 C          63.8759   85.3278   13.9869 C.ar    1  UNL1        0.0643
     19 I          64.5069   86.0765   15.1233 I       1  UNL1       -0.0394
     20 C          63.3017   86.0777   12.8217 C.ar    1  UNL1        0.1432
     21 O          63.3584   87.5764   12.7928 O.3     1  UNL1       -0.5049
     22 H          63.7525   88.0441   13.5026 H       1  UNL1        0.2922
     23 C          58.9373   90.2833    6.0937 C.3     1  UNL1        0.1365
     24 C          59.8497   90.9599    5.1140 C.ar    1  UNL1       -0.0042
     25 C          61.2581   90.4733    4.9414 C.ar    1  UNL1       -0.0021
     26 C          62.1705   91.1499    3.9617 C.ar    1  UNL1        0.0111
     27 C          61.6745   92.3130    3.1546 C.ar    1  UNL1        0.0577
     28 CL         62.5869   92.9895    2.1750 Cl      1  UNL1       -0.0822
     29 C          60.2662   92.7995    3.3273 C.ar    1  UNL1        0.0111
     30 C          59.3538   92.1229    4.3070 C.ar    1  UNL1       -0.0021
     31 C          57.4506   90.3567    5.9081 C.1     1  UNL1        0.0811
     32 N          55.9639   90.4301    5.7226 N.1     1  UNL1       -0.1952
@<TRIPOS>BOND
     1     1     2    1
     2     2     3   ar
     3     3     4   ar
     4     4    23    1
     5    23    31    1
     6    31    32    3
     7    23    24    1
     8    24    25   ar
     9    25    26   ar
    10    26    27   ar
    11    27    28    1
    12    27    29   ar
    13    29    30   ar
    14     4     5   ar
    15     5     6    1
    16     5     7   ar
    17     7     8   ar
    18     8     9    1
    19     9    10   am
    20    10    11    2
    21    10    13    1
    22    13    14   ar
    23    14    15   ar
    24    15    16    1
    25    15    17   ar
    26    17    18   ar
    27    18    19    1
    28    18    20   ar
    29    20    21    1
    30     8     2   ar
    31    20    13   ar
    32    30    24   ar
    33     9    12    1
    34    21    22    1
@<TRIPOS>MOLECULE
*****
 32 34 0 0 0
SMALL
GASTEIGER

@<TRIPOS>ATOM
      1 C          63.3338   90.8996    3.5180 C.3     1  UNL1        0.0323
      2 C          61.9185   91.3143    3.7921 C.ar    1  UNL1       -0.0086
      3 C          61.0745   90.5181    4.7427 C.ar    1  UNL1       -0.0051
      4 C          59.6592   90.9328    5.0168 C.ar    1  UNL1        0.0060
      5 C          59.0881   92.1437    4.3405 C.ar    1  UNL1        0.0562
      6 CL         57.6729   92.5583    4.6146 Cl      1  UNL1       -0.0825
      7 C          59.9322   92.9399    3.3899 C.ar    1  UNL1        0.0255
      8 C          61.3474   92.5252    3.1158 C.ar    1  UNL1        0.0473
      9 N          62.1915   93.3215    2.1652 N.am    1  UNL1       -0.2805
     10 C          62.0952   93.0740    0.6889 C.2     1  UNL1        0.2525
     11 O          61.1549   92.0303    0.1631 O.2     1  UNL1       -0.2697
     12 H          62.8087   94.0065    2.5103 H       1  UNL1        0.1552
     13 C          62.9393   93.8703   -0.2617 C.ar    1  UNL1        0.0881
     14 C          63.8955   94.8988    0.2654 C.ar    1  UNL1        0.0134
     15 C          64.7395   95.6951   -0.6851 C.ar    1  UNL1        0.0308
     16 I          65.6957   96.7236   -0.1579 I       1  UNL1       -0.0425
     17 C          64.6274   95.4628   -2.1627 C.ar    1  UNL1        0.0146
     18 C          63.6712   94.4343   -2.6898 C.ar    1  UNL1        0.0643
     19 I          63.5592   94.2020   -4.1675 I       1  UNL1       -0.0394
     20 C          62.8272   93.6380   -1.7393 C.ar    1  UNL1        0.1432
     21 O          61.8710   92.6095   -2.2664 O.3     1  UNL1       -0.5049
     22 H          61.8010   92.4644   -3.1895 H       1  UNL1        0.2922
     23 C          58.8152   90.1365    5.9674 C.3     1  UNL1        0.1365
     24 C          59.4670   89.2641    6.9989 C.ar    1  UNL1       -0.0042
     25 C          60.1817   89.8845    8.1627 C.ar    1  UNL1       -0.0021
     26 C          60.8335   89.0121    9.1942 C.ar    1  UNL1        0.0111
     27 C          60.7707   87.5192    9.0619 C.ar    1  UNL1        0.0577
     28 CL         61.4225   86.6468   10.0934 Cl      1  UNL1       -0.0822
     29 C          60.0560   86.8988    7.8981 C.ar    1  UNL1        0.0111
     30 C          59.4042   87.7713    6.8666 C.ar    1  UNL1       -0.0021
     31 C          57.3193   90.2127    5.8865 C.1     1  UNL1        0.0811
     32 N          55.8234   90.2889    5.8055 N.1     1  UNL1       -0.1952
@<TRIPOS>BOND
     1     1     2    1
     2     2     3   ar
     3     3     4   ar
     4     4    23    1
     5    23    31    1
     6    31    32    3
     7    23    24    1
     8    24    25   ar
     9    25    26   ar
    10    26    27   ar
    11    27    28    1
    12    27    29   ar
    13    29    30   ar
    14     4     5   ar
    15     5     6    1
    16     5     7   ar
    17     7     8   ar
    18     8     9    1
    19     9    10   am
    20    10    11    2
    21    10    13    1
    22    13    14   ar
    23    14    15   ar
    24    15    16    1
    25    15    17   ar
    26    17    18   ar
    27    18    19    1
    28    18    20   ar
    29    20    21    1
    30     8     2   ar
    31    20    13   ar
    32    30    24   ar
    33     9    12    1
    34    21    22    1
@<TRIPOS>MOLECULE
*****
 32 34 0 0 0
SMALL
GASTEIGER

@<TRIPOS>ATOM
      1 C          64.2549   85.9886   15.5645 C.3     1  UNL1        0.0323
      2 C          63.9941   87.0671   14.5551 C.ar    1  UNL1       -0.0086
      3 C          64.5146   88.4544   14.7883 C.ar    1  UNL1       -0.0051
      4 C          64.2538   89.5328   13.7789 C.ar    1  UNL1        0.0060
      5 C          63.4725   89.2240   12.5363 C.ar    1  UNL1        0.0562
      6 CL         63.2117   90.3025   11.5269 Cl      1  UNL1       -0.0825
      7 C          62.9519   87.8367   12.3031 C.ar    1  UNL1        0.0255
      8 C          63.2127   86.7583   13.3125 C.ar    1  UNL1        0.0473
      9 N          62.6922   85.3709   13.0792 N.am    1  UNL1       -0.2805
     10 C          63.6495   84.2400   12.8460 C.2     1  UNL1        0.2525
     11 O          65.1274   84.4963   12.8460 O.2     1  UNL1       -0.2697
     12 H          61.7221   85.2027   13.0792 H       1  UNL1        0.1552
     13 C          63.1289   82.8526   12.6127 C.ar    1  UNL1        0.0881
     14 C          62.1907   82.2274   13.6021 C.ar    1  UNL1        0.0134
     15 C          61.6701   80.8402   13.3689 C.ar    1  UNL1        0.0308
     16 I          60.7319   80.2150   14.3583 I       1  UNL1       -0.0425
     17 C          62.0877   80.0781   12.1463 C.ar    1  UNL1        0.0146
     18 C          63.0260   80.7033   11.1570 C.ar    1  UNL1        0.0643
     19 I          63.4436   79.9411    9.9343 I       1  UNL1       -0.0394
     20 C          63.5465   82.0905   11.3902 C.ar    1  UNL1        0.1432
     21 O          64.4848   82.7157   10.4008 O.3     1  UNL1       -0.5049
     22 H          64.7457   82.2397    9.6371 H       1  UNL1        0.2922
     23 C          64.7744   90.9202   14.0121 C.3     1  UNL1        0.1365
     24 C          65.5187   91.6348   12.9234 C.ar    1  UNL1       -0.0042
     25 C          64.7634   92.3766   11.8607 C.ar    1  UNL1       -0.0021
     26 C          65.5077   93.0913   10.7720 C.ar    1  UNL1        0.0111
     27 C          67.0073   93.0641   10.7460 C.ar    1  UNL1        0.0577
     28 CL         67.7516   93.7788    9.6573 Cl      1  UNL1       -0.0822
     29 C          67.7625   92.3224   11.8087 C.ar    1  UNL1        0.0111
     30 C          67.0182   91.6077   12.8974 C.ar    1  UNL1       -0.0021
     31 C          64.5507   91.5928   15.3340 C.1     1  UNL1        0.0811
     32 N          64.3270   92.2655   16.6560 N.1     1  UNL1       -0.1952
@<TRIPOS>BOND
     1     1     2    1
     2     2     3   ar
     3     3     4   ar
     4     4    23    1
     5    23    31    1
     6    31    32    3
     7    23    24    1
     8    24    25   ar
     9    25    26   ar
    10    26    27   ar
    11    27    28    1
    12    27    29   ar
    13    29    30   ar
    14     4     5   ar
    15     5     6    1
    16     5     7   ar
    17     7     8   ar
    18     8     9    1
    19     9    10   am
    20    10    11    2
    21    10    13    1
    22    13    14   ar
    23    14    15   ar
    24    15    16    1
    25    15    17   ar
    26    17    18   ar
    27    18    19    1
    28    18    20   ar
    29    20    21    1
    30     8     2   ar
    31    20    13   ar
    32    30    24   ar
    33     9    12    1
    34    21    22    1
@<TRIPOS>MOLECULE
*****
 32 34 0 0 0
SMALL
GASTEIGER

@<TRIPOS>ATOM
      1 C          64.2462   85.9432   15.5692 C.3     1  UNL1        0.0323
      2 C          63.9809   87.0208   14.5601 C.ar    1  UNL1       -0.0086
      3 C          64.4875   88.4124   14.7981 C.ar    1  UNL1       -0.0051
      4 C          64.2222   89.4900   13.7889 C.ar    1  UNL1        0.0060
      5 C          63.4503   89.1760   12.5417 C.ar    1  UNL1        0.0562
      6 CL         63.1850   90.2536   11.5326 Cl      1  UNL1       -0.0825
      7 C          62.9436   87.7844   12.3037 C.ar    1  UNL1        0.0255
      8 C          63.2089   86.7068   13.3129 C.ar    1  UNL1        0.0473
      9 N          62.7022   85.3151   13.0749 N.am    1  UNL1       -0.2805
     10 C          63.6714   84.1907   12.8595 C.2     1  UNL1        0.2525
     11 O          65.1472   84.4579   12.8821 O.2     1  UNL1       -0.2697
     12 H          61.7336   85.1398   13.0600 H       1  UNL1        0.1552
     13 C          63.1647   82.7990   12.6214 C.ar    1  UNL1        0.0881
     14 C          63.5193   82.0782   11.3547 C.ar    1  UNL1        0.0134
     15 C          63.0126   80.6866   11.1166 C.ar    1  UNL1        0.0308
     16 I          63.3672   79.9658    9.8498 I       1  UNL1       -0.0425
     17 C          62.1514   80.0159   12.1453 C.ar    1  UNL1        0.0146
     18 C          61.7968   80.7367   13.4121 C.ar    1  UNL1        0.0643
     19 I          60.9355   80.0658   14.4408 I       1  UNL1       -0.0394
     20 C          62.3035   82.1283   13.6501 C.ar    1  UNL1        0.1432
     21 O          61.9489   82.8491   14.9169 O.3     1  UNL1       -0.5049
     22 H          61.4109   82.4300   15.5595 H       1  UNL1        0.2922
     23 C          64.7289   90.8817   14.0269 C.3     1  UNL1        0.1365
     24 C          65.4806   91.6012   12.9465 C.ar    1  UNL1       -0.0042
     25 C          66.9806   91.5858   12.9386 C.ar    1  UNL1       -0.0021
     26 C          67.7323   92.3053   11.8582 C.ar    1  UNL1        0.0111
     27 C          66.9840   93.0402   10.7857 C.ar    1  UNL1        0.0577
     28 CL         67.7357   93.7597    9.7053 Cl      1  UNL1       -0.0822
     29 C          65.4842   93.0555   10.7936 C.ar    1  UNL1        0.0111
     30 C          64.7325   92.3360   11.8740 C.ar    1  UNL1       -0.0021
     31 C          64.4839   91.5538   15.3453 C.1     1  UNL1        0.0811
     32 N          64.2389   92.2259   16.6638 N.1     1  UNL1       -0.1952
@<TRIPOS>BOND
     1     1     2    1
     2     2     3   ar
     3     3     4   ar
     4     4    23    1
     5    23    31    1
     6    31    32    3
     7    23    24    1
     8    24    25   ar
     9    25    26   ar
    10    26    27   ar
    11    27    28    1
    12    27    29   ar
    13    29    30   ar
    14     4     5   ar
    15     5     6    1
    16     5     7   ar
    17     7     8   ar
    18     8     9    1
    19     9    10   am
    20    10    11    2
    21    10    13    1
    22    13    14   ar
    23    14    15   ar
    24    15    16    1
    25    15    17   ar
    26    17    18   ar
    27    18    19    1
    28    18    20   ar
    29    20    21    1
    30     8     2   ar
    31    20    13   ar
    32    30    24   ar
    33     9    12    1
    34    21    22    1
@<TRIPOS>MOLECULE
*****
 32 34 0 0 0
SMALL
GASTEIGER

@<TRIPOS>ATOM
      1 C          61.6663   90.3541   10.5753 C.3     1  UNL1        0.0323
      2 C          60.9107   89.5806    9.5357 C.ar    1  UNL1       -0.0086
      3 C          60.3061   90.2935    8.3626 C.ar    1  UNL1       -0.0051
      4 C          59.5506   89.5200    7.3229 C.ar    1  UNL1        0.0060
      5 C          59.3997   88.0337    7.4564 C.ar    1  UNL1        0.0562
      6 CL         58.6441   87.2602    6.4167 Cl      1  UNL1       -0.0825
      7 C          60.0042   87.3208    8.6295 C.ar    1  UNL1        0.0255
      8 C          60.7598   88.0943    9.6691 C.ar    1  UNL1        0.0473
      9 N          61.3644   87.3813   10.8423 N.am    1  UNL1       -0.2805
     10 C          62.2287   86.1752   10.6228 C.2     1  UNL1        0.2525
     11 O          62.4886   85.6820    9.2303 O.2     1  UNL1       -0.2697
     12 H          61.1939   87.7050   11.7563 H       1  UNL1        0.1552
     13 C          62.8333   85.4623   11.7960 C.ar    1  UNL1        0.0881
     14 C          63.3459   86.2465   12.9674 C.ar    1  UNL1        0.0134
     15 C          63.9505   85.5336   14.1405 C.ar    1  UNL1        0.0308
     16 I          64.4631   86.3179   15.3119 I       1  UNL1       -0.0425
     17 C          64.0425   84.0365   14.1422 C.ar    1  UNL1        0.0146
     18 C          63.5299   83.2522   12.9708 C.ar    1  UNL1        0.0643
     19 I          63.6219   81.7550   12.9726 I       1  UNL1       -0.0394
     20 C          62.9253   83.9651   11.7977 C.ar    1  UNL1        0.1432
     21 O          62.4127   83.1808   10.6263 O.3     1  UNL1       -0.5049
     22 H          62.4702   82.2456   10.6274 H       1  UNL1        0.2922
     23 C          58.9460   90.2330    6.1498 C.3     1  UNL1        0.1365
     24 C          59.8307   90.9238    5.1547 C.ar    1  UNL1       -0.0042
     25 C          59.3046   92.0830    4.3611 C.ar    1  UNL1       -0.0021
     26 C          60.1893   92.7738    3.3661 C.ar    1  UNL1        0.0111
     27 C          61.6000   92.3055    3.1647 C.ar    1  UNL1        0.0577
     28 CL         62.4847   92.9964    2.1697 Cl      1  UNL1       -0.0822
     29 C          62.1261   91.1465    3.9583 C.ar    1  UNL1        0.0111
     30 C          61.2414   90.4556    4.9533 C.ar    1  UNL1       -0.0021
     31 C          57.4568   90.2551    5.9717 C.1     1  UNL1        0.0811
     32 N          55.9675   90.2772    5.7936 N.1     1  UNL1       -0.1952
@<TRIPOS>BOND
     1     1     2    1
     2     2     3   ar
     3     3     4   ar
     4     4    23    1
     5    23    31    1
     6    31    32    3
     7    23    24    1
     8    24    25   ar
     9    25    26   ar
    10    26    27   ar
    11    27    28    1
    12    27    29   ar
    13    29    30   ar
    14     4     5   ar
    15     5     6    1
    16     5     7   ar
    17     7     8   ar
    18     8     9    1
    19     9    10   am
    20    10    11    2
    21    10    13    1
    22    13    14   ar
    23    14    15   ar
    24    15    16    1
    25    15    17   ar
    26    17    18   ar
    27    18    19    1
    28    18    20   ar
    29    20    21    1
    30     8     2   ar
    31    20    13   ar
    32    30    24   ar
    33     9    12    1
    34    21    22    1
@<TRIPOS>MOLECULE
*****
 32 34 0 0 0
SMALL
GASTEIGER

@<TRIPOS>ATOM
      1 C          62.0087   87.7326   10.5259 C.3     1  UNL1        0.0323
      2 C          62.7734   88.0154   11.7850 C.ar    1  UNL1       -0.0086
      3 C          63.1459   89.4254   12.1356 C.ar    1  UNL1       -0.0051
      4 C          63.9106   89.7082   13.3946 C.ar    1  UNL1        0.0060
      5 C          64.3028   88.5809   14.3031 C.ar    1  UNL1        0.0562
      6 CL         65.0676   88.8637   15.5622 Cl      1  UNL1       -0.0825
      7 C          63.9303   87.1709   13.9525 C.ar    1  UNL1        0.0255
      8 C          63.1656   86.8881   12.6935 C.ar    1  UNL1        0.0473
      9 N          62.7931   85.4780   12.3429 N.am    1  UNL1       -0.2805
     10 C          63.1987   84.3491   13.2435 C.2     1  UNL1        0.2525
     11 O          63.9768   84.6303   14.4947 O.2     1  UNL1       -0.2697
     12 H          62.2824   85.2934   11.5217 H       1  UNL1        0.1552
     13 C          62.8262   82.9390   12.8929 C.ar    1  UNL1        0.0881
     14 C          61.9306   82.1516   13.8028 C.ar    1  UNL1        0.0134
     15 C          61.5581   80.7415   13.4523 C.ar    1  UNL1        0.0308
     16 I          60.6624   79.9541   14.3622 I       1  UNL1       -0.0425
     17 C          62.0812   80.1188   12.1919 C.ar    1  UNL1        0.0146
     18 C          62.9768   80.9062   11.2821 C.ar    1  UNL1        0.0643
     19 I          63.4999   80.2835   10.0216 I       1  UNL1       -0.0394
     20 C          63.3493   82.3163   11.6326 C.ar    1  UNL1        0.1432
     21 O          64.2449   83.1037   10.7227 O.3     1  UNL1       -0.5049
     22 H          64.5717   82.7147    9.9354 H       1  UNL1        0.2922
     23 C          64.2831   91.1183   13.7452 C.3     1  UNL1        0.1365
     24 C          64.9110   92.0070   12.7127 C.ar    1  UNL1       -0.0042
     25 C          65.9587   93.0017   13.1163 C.ar    1  UNL1       -0.0021
     26 C          66.5866   93.8903   12.0837 C.ar    1  UNL1        0.0111
     27 C          66.1667   93.7842   10.6476 C.ar    1  UNL1        0.0577
     28 CL         66.7945   94.6729    9.6150 Cl      1  UNL1       -0.0822
     29 C          65.1189   92.7896   10.2440 C.ar    1  UNL1        0.0111
     30 C          64.4911   91.9010   11.2766 C.ar    1  UNL1       -0.0021
     31 C          64.0278   91.6398   15.1282 C.1     1  UNL1        0.0811
     32 N          63.7724   92.1613   16.5113 N.1     1  UNL1       -0.1952
@<TRIPOS>BOND
     1     1     2    1
     2     2     3   ar
     3     3     4   ar
     4     4    23    1
     5    23    31    1
     6    31    32    3
     7    23    24    1
     8    24    25   ar
     9    25    26   ar
    10    26    27   ar
    11    27    28    1
    12    27    29   ar
    13    29    30   ar
    14     4     5   ar
    15     5     6    1
    16     5     7   ar
    17     7     8   ar
    18     8     9    1
    19     9    10   am
    20    10    11    2
    21    10    13    1
    22    13    14   ar
    23    14    15   ar
    24    15    16    1
    25    15    17   ar
    26    17    18   ar
    27    18    19    1
    28    18    20   ar
    29    20    21    1
    30     8     2   ar
    31    20    13   ar
    32    30    24   ar
    33     9    12    1
    34    21    22    1
@<TRIPOS>MOLECULE
*****
 32 34 0 0 0
SMALL
GASTEIGER

@<TRIPOS>ATOM
      1 C          63.6284   86.5059   16.3031 C.3     1  UNL1        0.0323
      2 C          63.7839   87.6789   15.3811 C.ar    1  UNL1       -0.0086
      3 C          64.2291   89.0048   15.9230 C.ar    1  UNL1       -0.0051
      4 C          64.3846   90.1778   15.0011 C.ar    1  UNL1        0.0060
      5 C          64.0949   90.0249   13.5373 C.ar    1  UNL1        0.0562
      6 CL         64.2504   91.1978   12.6154 Cl      1  UNL1       -0.0825
      7 C          63.6497   88.6989   12.9955 C.ar    1  UNL1        0.0255
      8 C          63.4942   87.5259   13.9174 C.ar    1  UNL1        0.0473
      9 N          63.0489   86.1999   13.3755 N.am    1  UNL1       -0.2805
     10 C          63.9097   84.9859   13.5628 C.2     1  UNL1        0.2525
     11 O          65.2157   85.0978   14.2921 O.2     1  UNL1       -0.2697
     12 H          62.1918   86.1265   12.8968 H       1  UNL1        0.1552
     13 C          63.4644   83.6599   13.0209 C.ar    1  UNL1        0.0881
     14 C          63.8667   83.2418   11.6377 C.ar    1  UNL1        0.0134
     15 C          63.4215   81.9158   11.0958 C.ar    1  UNL1        0.0308
     16 I          63.8237   81.4977    9.7125 I       1  UNL1       -0.0425
     17 C          62.5741   81.0081   11.9371 C.ar    1  UNL1        0.0146
     18 C          62.1718   81.4263   13.3203 C.ar    1  UNL1        0.0643
     19 I          61.3244   80.5185   14.1616 I       1  UNL1       -0.0394
     20 C          62.6170   82.7522   13.8622 C.ar    1  UNL1        0.1432
     21 O          62.2148   83.1703   15.2455 O.3     1  UNL1       -0.5049
     22 H          61.6855   82.6033   15.7710 H       1  UNL1        0.2922
     23 C          64.8298   91.5038   15.5430 C.3     1  UNL1        0.1365
     24 C          66.2482   91.9535   15.3532 C.ar    1  UNL1       -0.0042
     25 C          66.8486   92.9576   16.2920 C.ar    1  UNL1       -0.0021
     26 C          68.2670   93.4074   16.1022 C.ar    1  UNL1        0.0111
     27 C          69.0849   92.8531   14.9735 C.ar    1  UNL1        0.0577
     28 CL         70.5032   93.3028   14.7837 Cl      1  UNL1       -0.0822
     29 C          68.4844   91.8491   14.0347 C.ar    1  UNL1        0.0111
     30 C          67.0661   91.3993   14.2245 C.ar    1  UNL1       -0.0021
     31 C          63.8568   92.3799   16.2747 C.1     1  UNL1        0.0811
     32 N          62.8836   93.2561   17.0064 N.1     1  UNL1       -0.1952
@<TRIPOS>BOND
     1     1     2    1
     2     2     3   ar
     3     3     4   ar
     4     4    23    1
     5    23    31    1
     6    31    32    3
     7    23    24    1
     8    24    25   ar
     9    25    26   ar
    10    26    27   ar
    11    27    28    1
    12    27    29   ar
    13    29    30   ar
    14     4     5   ar
    15     5     6    1
    16     5     7   ar
    17     7     8   ar
    18     8     9    1
    19     9    10   am
    20    10    11    2
    21    10    13    1
    22    13    14   ar
    23    14    15   ar
    24    15    16    1
    25    15    17   ar
    26    17    18   ar
    27    18    19    1
    28    18    20   ar
    29    20    21    1
    30     8     2   ar
    31    20    13   ar
    32    30    24   ar
    33     9    12    1
    34    21    22    1
@<TRIPOS>MOLECULE
*****
 32 34 0 0 0
SMALL
GASTEIGER

@<TRIPOS>ATOM
      1 C          60.0031   89.0265   11.0562 C.3     1  UNL1        0.0323
      2 C          60.8699   87.8913   10.5981 C.ar    1  UNL1       -0.0086
      3 C          61.2760   86.8198   11.5661 C.ar    1  UNL1       -0.0051
      4 C          62.1428   85.6845   11.1080 C.ar    1  UNL1        0.0060
      5 C          62.6036   85.6207    9.6820 C.ar    1  UNL1        0.0562
      6 CL         63.4704   84.4855    9.2239 Cl      1  UNL1       -0.0825
      7 C          62.1975   86.6922    8.7140 C.ar    1  UNL1        0.0255
      8 C          61.3307   87.8275    9.1721 C.ar    1  UNL1        0.0473
      9 N          60.9246   88.8990    8.2040 N.am    1  UNL1       -0.2805
     10 C          59.8235   88.6413    7.2186 C.2     1  UNL1        0.2525
     11 O          59.1284   87.3122    7.2012 O.2     1  UNL1       -0.2697
     12 H          61.3808   89.7713    8.2154 H       1  UNL1        0.1552
     13 C          59.4174   89.7128    6.2505 C.ar    1  UNL1        0.0881
     14 C          60.4617   90.4460    5.4619 C.ar    1  UNL1        0.0134
     15 C          60.0557   91.5175    4.4939 C.ar    1  UNL1        0.0308
     16 I          61.0999   92.2507    3.7052 I       1  UNL1       -0.0425
     17 C          58.6054   91.8557    4.3145 C.ar    1  UNL1        0.0146
     18 C          57.5611   91.1226    5.1031 C.ar    1  UNL1        0.0643
     19 I          56.1108   91.4609    4.9237 I       1  UNL1       -0.0394
     20 C          57.9671   90.0511    6.0711 C.ar    1  UNL1        0.1432
     21 O          56.9229   89.3179    6.8598 O.3     1  UNL1       -0.5049
     22 H          56.0169   89.5293    6.7477 H       1  UNL1        0.2922
     23 C          62.5489   84.6130   12.0761 C.3     1  UNL1        0.1365
     24 C          62.7957   84.9568   13.5151 C.ar    1  UNL1       -0.0042
     25 C          63.8349   85.9769   13.8750 C.ar    1  UNL1       -0.0021
     26 C          64.0816   86.3207   15.3141 C.ar    1  UNL1        0.0111
     27 C          63.2892   85.6443   16.3933 C.ar    1  UNL1        0.0577
     28 CL         63.5359   85.9880   17.8324 Cl      1  UNL1       -0.0822
     29 C          62.2500   84.6242   16.0334 C.ar    1  UNL1        0.0111
     30 C          62.0033   84.2804   14.5943 C.ar    1  UNL1       -0.0021
     31 C          62.7082   83.1979   11.6050 C.1     1  UNL1        0.0811
     32 N          62.8675   81.7826   11.1340 N.1     1  UNL1       -0.1952
@<TRIPOS>BOND
     1     1     2    1
     2     2     3   ar
     3     3     4   ar
     4     4    23    1
     5    23    31    1
     6    31    32    3
     7    23    24    1
     8    24    25   ar
     9    25    26   ar
    10    26    27   ar
    11    27    28    1
    12    27    29   ar
    13    29    30   ar
    14     4     5   ar
    15     5     6    1
    16     5     7   ar
    17     7     8   ar
    18     8     9    1
    19     9    10   am
    20    10    11    2
    21    10    13    1
    22    13    14   ar
    23    14    15   ar
    24    15    16    1
    25    15    17   ar
    26    17    18   ar
    27    18    19    1
    28    18    20   ar
    29    20    21    1
    30     8     2   ar
    31    20    13   ar
    32    30    24   ar
    33     9    12    1
    34    21    22    1
