@<TRIPOS>MOLECULE
*****
 27 29 0 0 0
SMALL
GASTEIGER

@<TRIPOS>ATOM
      1 C          65.7429   93.2760   11.8695 C.3     1  UNL1        0.0539
      2 C          64.8901   92.0747   12.1516 C.ar    1  UNL1        0.0812
      3 N          63.9347   91.4270   11.1936 N.ar    1  UNL1       -0.2282
      4 C          63.2971   90.2622   11.8913 C.ar    1  UNL1        0.1781
      5 N          63.8584   90.1900   13.2804 N.ar    1  UNL1       -0.1590
      6 C          64.8430   91.3101   13.4413 C.ar    1  UNL1        0.1267
      7 C          62.2772   89.3328   11.3030 C.ar    1  UNL1        0.0378
      8 C          60.8313   89.4721   11.6771 C.ar    1  UNL1        0.0031
      9 C          59.8115   88.5427   11.0889 C.ar    1  UNL1        0.0008
     10 C          60.2376   87.4739   10.1264 C.ar    1  UNL1        0.0103
     11 C          61.6834   87.3346    9.7522 C.ar    1  UNL1        0.0685
     12 C          62.7032   88.2640   10.3405 C.ar    1  UNL1        0.0134
     13 C          62.1095   86.2659    8.7898 C.1     1  UNL1        0.1004
     14 N          62.5355   85.1972    7.8273 N.1     1  UNL1       -0.1908
     15 C          65.6404   91.6127   14.6753 C.2     1  UNL1        0.0931
     16 O          67.1035   91.2853   14.7218 O.co2   1  UNL1       -0.5429
     17 O          64.9746   92.2425   15.8627 O.co2   1  UNL1       -0.5429
     18 O          63.4985   89.1757   14.3252 O.3     1  UNL1       -0.3887
     19 C          64.4428   88.0530   14.6375 C.3     1  UNL1        0.2631
     20 C          64.0212   86.6320   14.4069 C.ar    1  UNL1        0.0240
     21 C          64.2202   85.6066   15.4835 C.ar    1  UNL1        0.0001
     22 C          63.7986   84.1857   15.2529 C.ar    1  UNL1        0.0101
     23 C          63.1779   83.7902   13.9460 C.ar    1  UNL1        0.0684
     24 C          62.9789   84.8156   12.8694 C.ar    1  UNL1        0.0101
     25 C          63.4005   86.2365   13.0999 C.ar    1  UNL1        0.0001
     26 C          62.7563   82.3692   13.7155 C.1     1  UNL1        0.1004
     27 N          62.3346   80.9482   13.4849 N.1     1  UNL1       -0.1908
@<TRIPOS>UNITY_ATOM_ATTR
16 1
charge -1
@<TRIPOS>BOND
     1     1     2    1
     2     2     3   ar
     3     3     4   ar
     4     4     7    1
     5     7     8   ar
     6     8     9   ar
     7     9    10   ar
     8    10    11   ar
     9    11    13    1
    10    13    14    3
    11    11    12   ar
    12     4     5   ar
    13     5    18    1
    14    18    19    1
    15    19    20    1
    16    20    21   ar
    17    21    22   ar
    18    22    23   ar
    19    23    26    1
    20    26    27    3
    21    23    24   ar
    22    24    25   ar
    23     5     6   ar
    24     6    15    1
    25    15    16   ar
    26    15    17   ar
    27     6     2   ar
    28    12     7   ar
    29    25    20   ar
@<TRIPOS>MOLECULE
*****
 27 29 0 0 0
SMALL
GASTEIGER

@<TRIPOS>ATOM
      1 C          66.9281   93.5159   13.5993 C.3     1  UNL1        0.0539
      2 C          65.7852   92.5444   13.6034 C.ar    1  UNL1        0.0812
      3 N          65.1724   91.8990   12.3960 N.ar    1  UNL1       -0.2282
      4 C          64.0629   91.0035   12.8619 C.ar    1  UNL1        0.1781
      5 N          63.9900   91.0954   14.3573 N.ar    1  UNL1       -0.1590
      6 C          65.0544   92.0478   14.8156 C.ar    1  UNL1        0.1267
      7 C          63.1811   90.1635   11.9862 C.ar    1  UNL1        0.0378
      8 C          62.3101   90.8152   10.9534 C.ar    1  UNL1        0.0031
      9 C          61.4284   89.9752   10.0777 C.ar    1  UNL1        0.0008
     10 C          61.4176   88.4835   10.2348 C.ar    1  UNL1        0.0103
     11 C          62.2885   87.8318   11.2675 C.ar    1  UNL1        0.0685
     12 C          63.1703   88.6718   12.1432 C.ar    1  UNL1        0.0134
     13 C          62.2777   86.3401   11.4246 C.1     1  UNL1        0.1004
     14 N          62.2670   84.8484   11.5816 N.1     1  UNL1       -0.1908
     15 C          65.3383   92.4354   16.2366 C.2     1  UNL1        0.0931
     16 O          66.7533   92.4873   16.7315 O.co2   1  UNL1       -0.5429
     17 O          64.2071   92.7712   17.1626 O.co2   1  UNL1       -0.5429
     18 O          63.0225   90.3636   15.2396 O.3     1  UNL1       -0.3887
     19 C          63.5295   89.4026   16.2736 C.3     1  UNL1        0.2631
     20 C          63.5801   87.9341   15.9722 C.ar    1  UNL1        0.0240
     21 C          64.3609   87.4373   14.7917 C.ar    1  UNL1        0.0001
     22 C          64.4114   85.9688   14.4902 C.ar    1  UNL1        0.0101
     23 C          63.6813   84.9971   15.3692 C.ar    1  UNL1        0.0684
     24 C          62.9005   85.4939   16.5497 C.ar    1  UNL1        0.0101
     25 C          62.8499   86.9624   16.8512 C.ar    1  UNL1        0.0001
     26 C          63.7319   83.5286   15.0677 C.1     1  UNL1        0.1004
     27 N          63.7824   82.0600   14.7662 N.1     1  UNL1       -0.1908
@<TRIPOS>UNITY_ATOM_ATTR
16 1
charge -1
@<TRIPOS>BOND
     1     1     2    1
     2     2     3   ar
     3     3     4   ar
     4     4     7    1
     5     7     8   ar
     6     8     9   ar
     7     9    10   ar
     8    10    11   ar
     9    11    13    1
    10    13    14    3
    11    11    12   ar
    12     4     5   ar
    13     5    18    1
    14    18    19    1
    15    19    20    1
    16    20    21   ar
    17    21    22   ar
    18    22    23   ar
    19    23    26    1
    20    26    27    3
    21    23    24   ar
    22    24    25   ar
    23     5     6   ar
    24     6    15    1
    25    15    16   ar
    26    15    17   ar
    27     6     2   ar
    28    12     7   ar
    29    25    20   ar
@<TRIPOS>MOLECULE
*****
 27 29 0 0 0
SMALL
GASTEIGER

@<TRIPOS>ATOM
      1 C          59.3002   88.0847    7.8940 C.3     1  UNL1        0.0539
      2 C          60.3632   87.6294    8.8493 C.ar    1  UNL1        0.0812
      3 N          60.8375   86.2183    9.0333 N.ar    1  UNL1       -0.2282
      4 C          61.9060   86.2220   10.0861 C.ar    1  UNL1        0.1781
      5 N          62.0922   87.6354   10.5526 N.ar    1  UNL1       -0.1590
      6 C          61.1387   88.5052    9.7882 C.ar    1  UNL1        0.1267
      7 C          62.6567   85.0228   10.5847 C.ar    1  UNL1        0.0378
      8 C          63.3766   84.1324    9.6158 C.ar    1  UNL1        0.0031
      9 C          64.1271   82.9332   10.1144 C.ar    1  UNL1        0.0008
     10 C          64.1578   82.6245   11.5820 C.ar    1  UNL1        0.0103
     11 C          63.4379   83.5150   12.5509 C.ar    1  UNL1        0.0685
     12 C          62.6874   84.7141   12.0523 C.ar    1  UNL1        0.0134
     13 C          63.4686   83.2063   14.0185 C.1     1  UNL1        0.1004
     14 N          63.4993   82.8976   15.4860 N.1     1  UNL1       -0.1908
     15 C          60.9872   89.9901    9.9367 C.2     1  UNL1        0.0931
     16 O          59.6839   90.5682   10.4027 O.co2   1  UNL1       -0.5429
     17 O          62.1391   90.8970    9.6192 O.co2   1  UNL1       -0.5429
     18 O          63.0616   88.0978   11.5996 O.3     1  UNL1       -0.3887
     19 C          62.7214   89.2700   12.4715 C.3     1  UNL1        0.2631
     20 C          63.8118   90.1583   12.9931 C.ar    1  UNL1        0.0240
     21 C          64.2427   91.3591   12.2042 C.ar    1  UNL1        0.0001
     22 C          65.3330   92.2474   12.7258 C.ar    1  UNL1        0.0101
     23 C          65.9924   91.9349   14.0363 C.ar    1  UNL1        0.0684
     24 C          65.5614   90.7341   14.8253 C.ar    1  UNL1        0.0101
     25 C          64.4711   89.8458   14.3037 C.ar    1  UNL1        0.0001
     26 C          67.0827   92.8232   14.5579 C.1     1  UNL1        0.1004
     27 N          68.1731   93.7116   15.0796 N.1     1  UNL1       -0.1908
@<TRIPOS>UNITY_ATOM_ATTR
16 1
charge -1
@<TRIPOS>BOND
     1     1     2    1
     2     2     3   ar
     3     3     4   ar
     4     4     7    1
     5     7     8   ar
     6     8     9   ar
     7     9    10   ar
     8    10    11   ar
     9    11    13    1
    10    13    14    3
    11    11    12   ar
    12     4     5   ar
    13     5    18    1
    14    18    19    1
    15    19    20    1
    16    20    21   ar
    17    21    22   ar
    18    22    23   ar
    19    23    26    1
    20    26    27    3
    21    23    24   ar
    22    24    25   ar
    23     5     6   ar
    24     6    15    1
    25    15    16   ar
    26    15    17   ar
    27     6     2   ar
    28    12     7   ar
    29    25    20   ar
@<TRIPOS>MOLECULE
*****
 27 29 0 0 0
SMALL
GASTEIGER

@<TRIPOS>ATOM
      1 C          59.9295   86.2348    7.8501 C.3     1  UNL1        0.0539
      2 C          60.6489   86.5788    9.1206 C.ar    1  UNL1        0.0812
      3 N          61.3842   85.6167   10.0057 N.ar    1  UNL1       -0.2282
      4 C          61.9490   86.3886   11.1612 C.ar    1  UNL1        0.1781
      5 N          61.5627   87.8279   10.9902 N.ar    1  UNL1       -0.1590
      6 C          60.7592   87.9455    9.7290 C.ar    1  UNL1        0.1267
      7 C          62.7580   85.8209   12.2896 C.ar    1  UNL1        0.0378
      8 C          63.5498   86.7337   13.1783 C.ar    1  UNL1        0.0031
      9 C          64.3587   86.1660   14.3066 C.ar    1  UNL1        0.0008
     10 C          64.3759   84.6854   14.5463 C.ar    1  UNL1        0.0103
     11 C          63.5841   83.7725   13.6577 C.ar    1  UNL1        0.0685
     12 C          62.7752   84.3403   12.5294 C.ar    1  UNL1        0.0134
     13 C          63.6013   82.2919   13.8974 C.1     1  UNL1        0.1004
     14 N          63.6185   80.8113   14.1371 N.1     1  UNL1       -0.1908
     15 C          60.1696   89.2080    9.1738 C.2     1  UNL1        0.0931
     16 O          59.8002   90.3321   10.0958 O.co2   1  UNL1       -0.5429
     17 O          59.9494   89.3466    7.6965 O.co2   1  UNL1       -0.5429
     18 O          61.9176   88.9522   11.9175 O.3     1  UNL1       -0.3887
     19 C          62.7927   90.0721   11.4381 C.3     1  UNL1        0.2631
     20 C          63.7936   90.6925   12.3673 C.ar    1  UNL1        0.0240
     21 C          63.9473   90.1665   13.7636 C.ar    1  UNL1        0.0001
     22 C          64.9482   90.7868   14.6927 C.ar    1  UNL1        0.0101
     23 C          65.7953   91.9331   14.2256 C.ar    1  UNL1        0.0684
     24 C          65.6417   92.4591   12.8293 C.ar    1  UNL1        0.0101
     25 C          64.6408   91.8388   11.9001 C.ar    1  UNL1        0.0001
     26 C          66.7962   92.5534   15.1548 C.1     1  UNL1        0.1004
     27 N          67.7972   93.1738   16.0840 N.1     1  UNL1       -0.1908
@<TRIPOS>UNITY_ATOM_ATTR
16 1
charge -1
@<TRIPOS>BOND
     1     1     2    1
     2     2     3   ar
     3     3     4   ar
     4     4     7    1
     5     7     8   ar
     6     8     9   ar
     7     9    10   ar
     8    10    11   ar
     9    11    13    1
    10    13    14    3
    11    11    12   ar
    12     4     5   ar
    13     5    18    1
    14    18    19    1
    15    19    20    1
    16    20    21   ar
    17    21    22   ar
    18    22    23   ar
    19    23    26    1
    20    26    27    3
    21    23    24   ar
    22    24    25   ar
    23     5     6   ar
    24     6    15    1
    25    15    16   ar
    26    15    17   ar
    27     6     2   ar
    28    12     7   ar
    29    25    20   ar
@<TRIPOS>MOLECULE
*****
 27 29 0 0 0
SMALL
GASTEIGER

@<TRIPOS>ATOM
      1 C          61.5001   85.2841    6.7432 C.3     1  UNL1        0.0539
      2 C          61.5512   85.5832    8.2121 C.ar    1  UNL1        0.0812
      3 N          62.4158   84.8907    9.2234 N.ar    1  UNL1       -0.2282
      4 C          62.1456   85.5070   10.5640 C.ar    1  UNL1        0.1781
      5 N          61.1140   86.5804   10.3813 N.ar    1  UNL1       -0.1590
      6 C          60.7466   86.6276    8.9278 C.ar    1  UNL1        0.1267
      7 C          62.7934   85.1180   11.8599 C.ar    1  UNL1        0.0378
      8 C          63.3480   86.1751   12.7681 C.ar    1  UNL1        0.0031
      9 C          63.9957   85.7862   14.0639 C.ar    1  UNL1        0.0008
     10 C          64.0889   84.3401   14.4515 C.ar    1  UNL1        0.0103
     11 C          63.5343   83.2830   13.5432 C.ar    1  UNL1        0.0685
     12 C          62.8866   83.6719   12.2475 C.ar    1  UNL1        0.0134
     13 C          63.6274   81.8369   13.9308 C.1     1  UNL1        0.1004
     14 N          63.7206   80.3908   14.3184 N.1     1  UNL1       -0.1908
     15 C          59.7496   87.5560    8.3000 C.2     1  UNL1        0.0931
     16 O          60.1182   88.9862    8.0378 O.co2   1  UNL1       -0.5429
     17 O          58.3841   87.0543    7.9345 O.co2   1  UNL1       -0.5429
     18 O          60.5489   87.4534   11.4623 O.3     1  UNL1       -0.3887
     19 C          60.4825   88.9393   11.2684 C.3     1  UNL1        0.2631
     20 C          61.7255   89.7689   11.3970 C.ar    1  UNL1        0.0240
     21 C          62.2154   90.5720   10.2286 C.ar    1  UNL1        0.0001
     22 C          63.4585   91.4016   10.3572 C.ar    1  UNL1        0.0101
     23 C          64.2116   91.4281   11.6541 C.ar    1  UNL1        0.0684
     24 C          63.7217   90.6249   12.8225 C.ar    1  UNL1        0.0101
     25 C          62.4787   89.7953   12.6939 C.ar    1  UNL1        0.0001
     26 C          65.4547   92.2577   11.7827 C.1     1  UNL1        0.1004
     27 N          66.6978   93.0873   11.9113 N.1     1  UNL1       -0.1908
@<TRIPOS>UNITY_ATOM_ATTR
16 1
charge -1
@<TRIPOS>BOND
     1     1     2    1
     2     2     3   ar
     3     3     4   ar
     4     4     7    1
     5     7     8   ar
     6     8     9   ar
     7     9    10   ar
     8    10    11   ar
     9    11    13    1
    10    13    14    3
    11    11    12   ar
    12     4     5   ar
    13     5    18    1
    14    18    19    1
    15    19    20    1
    16    20    21   ar
    17    21    22   ar
    18    22    23   ar
    19    23    26    1
    20    26    27    3
    21    23    24   ar
    22    24    25   ar
    23     5     6   ar
    24     6    15    1
    25    15    16   ar
    26    15    17   ar
    27     6     2   ar
    28    12     7   ar
    29    25    20   ar
@<TRIPOS>MOLECULE
*****
 27 29 0 0 0
SMALL
GASTEIGER

@<TRIPOS>ATOM
      1 C          63.9472   83.4671   15.3359 C.3     1  UNL1        0.0539
      2 C          63.7095   84.5596   14.3359 C.ar    1  UNL1        0.0812
      3 N          63.9126   86.0275   14.5687 N.ar    1  UNL1       -0.2282
      4 C          63.5555   86.7511   13.3042 C.ar    1  UNL1        0.1781
      5 N          63.1318   85.7306   12.2899 N.ar    1  UNL1       -0.1590
      6 C          63.2269   84.3761   12.9275 C.ar    1  UNL1        0.1267
      7 C          63.6123   88.2349   13.0915 C.ar    1  UNL1        0.0378
      8 C          63.0298   88.8370   11.8473 C.ar    1  UNL1        0.0031
      9 C          63.0866   90.3207   11.6346 C.ar    1  UNL1        0.0008
     10 C          63.7259   91.2024   12.6661 C.ar    1  UNL1        0.0103
     11 C          64.3084   90.6003   13.9103 C.ar    1  UNL1        0.0685
     12 C          64.2516   89.1166   14.1230 C.ar    1  UNL1        0.0134
     13 C          64.9477   91.4819   14.9418 C.1     1  UNL1        0.1004
     14 N          65.5870   92.3636   15.9733 N.1     1  UNL1       -0.1908
     15 C          62.8974   83.0679   12.2718 C.2     1  UNL1        0.0931
     16 O          63.4381   82.7552   10.9081 O.co2   1  UNL1       -0.5429
     17 O          62.0271   82.0723   12.9799 O.co2   1  UNL1       -0.5429
     18 O          62.6904   86.0145   10.8848 O.3     1  UNL1       -0.3887
     19 C          61.2357   85.9424   10.5264 C.3     1  UNL1        0.2631
     20 C          60.6675   86.8817    9.5043 C.ar    1  UNL1        0.0240
     21 C          60.0188   86.3389    8.2655 C.ar    1  UNL1        0.0001
     22 C          59.4506   87.2782    7.2434 C.ar    1  UNL1        0.0101
     23 C          59.5310   88.7602    7.4599 C.ar    1  UNL1        0.0684
     24 C          60.1797   89.3031    8.6988 C.ar    1  UNL1        0.0101
     25 C          60.7479   88.3638    9.7209 C.ar    1  UNL1        0.0001
     26 C          58.9628   89.6995    6.4378 C.1     1  UNL1        0.1004
     27 N          58.3945   90.6388    5.4156 N.1     1  UNL1       -0.1908
@<TRIPOS>UNITY_ATOM_ATTR
16 1
charge -1
@<TRIPOS>BOND
     1     1     2    1
     2     2     3   ar
     3     3     4   ar
     4     4     7    1
     5     7     8   ar
     6     8     9   ar
     7     9    10   ar
     8    10    11   ar
     9    11    13    1
    10    13    14    3
    11    11    12   ar
    12     4     5   ar
    13     5    18    1
    14    18    19    1
    15    19    20    1
    16    20    21   ar
    17    21    22   ar
    18    22    23   ar
    19    23    26    1
    20    26    27    3
    21    23    24   ar
    22    24    25   ar
    23     5     6   ar
    24     6    15    1
    25    15    16   ar
    26    15    17   ar
    27     6     2   ar
    28    12     7   ar
    29    25    20   ar
@<TRIPOS>MOLECULE
*****
 27 29 0 0 0
SMALL
GASTEIGER

@<TRIPOS>ATOM
      1 C          64.6945   82.2290   14.2614 C.3     1  UNL1        0.0539
      2 C          64.2648   83.6439   14.0094 C.ar    1  UNL1        0.0812
      3 N          64.4067   84.7918   14.9644 N.ar    1  UNL1       -0.2282
      4 C          63.8474   86.0167   14.3034 C.ar    1  UNL1        0.1781
      5 N          63.3598   85.6257   12.9398 N.ar    1  UNL1       -0.1590
      6 C          63.6177   84.1593   12.7581 C.ar    1  UNL1        0.1267
      7 C          63.7864   87.3912   14.9011 C.ar    1  UNL1        0.0378
      8 C          63.2746   87.5794   16.2984 C.ar    1  UNL1        0.0031
      9 C          63.2137   88.9538   16.8960 C.ar    1  UNL1        0.0008
     10 C          63.6645   90.1400   16.0962 C.ar    1  UNL1        0.0103
     11 C          64.1763   89.9518   14.6989 C.ar    1  UNL1        0.0685
     12 C          64.2373   88.5774   14.1013 C.ar    1  UNL1        0.0134
     13 C          64.6271   91.1381   13.8992 C.1     1  UNL1        0.1004
     14 N          65.0780   92.3243   13.0994 N.1     1  UNL1       -0.1908
     15 C          63.2868   83.3503   11.5391 C.2     1  UNL1        0.0931
     16 O          62.3995   82.1465   11.6560 O.co2   1  UNL1       -0.5429
     17 O          63.8430   83.7450   10.2032 O.co2   1  UNL1       -0.5429
     18 O          62.7256   86.5406   11.9344 O.3     1  UNL1       -0.3887
     19 C          61.4722   86.1217   11.2248 C.3     1  UNL1        0.2631
     20 C          60.9191   86.9679   10.1167 C.ar    1  UNL1        0.0240
     21 C          60.9509   88.4634   10.2277 C.ar    1  UNL1        0.0001
     22 C          60.3978   89.3096    9.1195 C.ar    1  UNL1        0.0101
     23 C          59.8129   88.6603    7.9005 C.ar    1  UNL1        0.0684
     24 C          59.7811   87.1647    7.7894 C.ar    1  UNL1        0.0101
     25 C          60.3342   86.3185    8.8976 C.ar    1  UNL1        0.0001
     26 C          59.2598   89.5065    6.7923 C.1     1  UNL1        0.1004
     27 N          58.7067   90.3528    5.6841 N.1     1  UNL1       -0.1908
@<TRIPOS>UNITY_ATOM_ATTR
16 1
charge -1
@<TRIPOS>BOND
     1     1     2    1
     2     2     3   ar
     3     3     4   ar
     4     4     7    1
     5     7     8   ar
     6     8     9   ar
     7     9    10   ar
     8    10    11   ar
     9    11    13    1
    10    13    14    3
    11    11    12   ar
    12     4     5   ar
    13     5    18    1
    14    18    19    1
    15    19    20    1
    16    20    21   ar
    17    21    22   ar
    18    22    23   ar
    19    23    26    1
    20    26    27    3
    21    23    24   ar
    22    24    25   ar
    23     5     6   ar
    24     6    15    1
    25    15    16   ar
    26    15    17   ar
    27     6     2   ar
    28    12     7   ar
    29    25    20   ar
@<TRIPOS>MOLECULE
*****
 27 29 0 0 0
SMALL
GASTEIGER

@<TRIPOS>ATOM
      1 C          63.5304   81.0030   10.6795 C.3     1  UNL1        0.0539
      2 C          63.1596   82.3447   11.2382 C.ar    1  UNL1        0.0812
      3 N          62.8535   83.5778   10.4409 N.ar    1  UNL1       -0.2282
      4 C          62.5345   84.6842   11.4022 C.ar    1  UNL1        0.1781
      5 N          62.6436   84.1349   12.7938 N.ar    1  UNL1       -0.1590
      6 C          63.0299   82.6890   12.6924 C.ar    1  UNL1        0.1267
      7 C          62.1704   86.0926   11.0363 C.ar    1  UNL1        0.0378
      8 C          62.8165   87.2435   11.7489 C.ar    1  UNL1        0.0031
      9 C          62.4524   88.6519   11.3829 C.ar    1  UNL1        0.0008
     10 C          61.4422   88.9093   10.3044 C.ar    1  UNL1        0.0103
     11 C          60.7962   87.7583    9.5917 C.ar    1  UNL1        0.0685
     12 C          61.1603   86.3500    9.9577 C.ar    1  UNL1        0.0134
     13 C          59.7860   88.0157    8.5131 C.1     1  UNL1        0.1004
     14 N          58.7759   88.2731    7.4346 N.1     1  UNL1       -0.1908
     15 C          63.2482   81.7520   13.8432 C.2     1  UNL1        0.0931
     16 O          64.1405   82.1548   14.9796 O.co2   1  UNL1       -0.5429
     17 O          62.5741   80.4120   13.8576 O.co2   1  UNL1       -0.5429
     18 O          62.4077   84.8975   14.0637 O.3     1  UNL1       -0.3887
     19 C          63.5724   85.3997   14.8644 C.3     1  UNL1        0.2631
     20 C          63.6418   86.8443   15.2624 C.ar    1  UNL1        0.0240
     21 C          63.0472   87.2928   16.5644 C.ar    1  UNL1        0.0001
     22 C          63.1166   88.7374   16.9625 C.ar    1  UNL1        0.0101
     23 C          63.7806   89.7333   16.0586 C.ar    1  UNL1        0.0684
     24 C          64.3753   89.2848   14.7566 C.ar    1  UNL1        0.0101
     25 C          64.3058   87.8403   14.3585 C.ar    1  UNL1        0.0001
     26 C          63.8500   91.1778   16.4567 C.1     1  UNL1        0.1004
     27 N          63.9194   92.6225   16.8548 N.1     1  UNL1       -0.1908
@<TRIPOS>UNITY_ATOM_ATTR
16 1
charge -1
@<TRIPOS>BOND
     1     1     2    1
     2     2     3   ar
     3     3     4   ar
     4     4     7    1
     5     7     8   ar
     6     8     9   ar
     7     9    10   ar
     8    10    11   ar
     9    11    13    1
    10    13    14    3
    11    11    12   ar
    12     4     5   ar
    13     5    18    1
    14    18    19    1
    15    19    20    1
    16    20    21   ar
    17    21    22   ar
    18    22    23   ar
    19    23    26    1
    20    26    27    3
    21    23    24   ar
    22    24    25   ar
    23     5     6   ar
    24     6    15    1
    25    15    16   ar
    26    15    17   ar
    27     6     2   ar
    28    12     7   ar
    29    25    20   ar
@<TRIPOS>MOLECULE
*****
 27 29 0 0 0
SMALL
GASTEIGER

@<TRIPOS>ATOM
      1 C          67.5058   94.0071   14.8215 C.3     1  UNL1        0.0539
      2 C          66.5650   92.8907   14.4774 C.ar    1  UNL1        0.0812
      3 N          66.1014   91.8098   15.4084 N.ar    1  UNL1       -0.2282
      4 C          65.1725   90.9102   14.6482 C.ar    1  UNL1        0.1781
      5 N          65.0618   91.4351   13.2475 N.ar    1  UNL1       -0.1590
      6 C          65.9224   92.6591   13.1418 C.ar    1  UNL1        0.1267
      7 C          64.4763   89.6984   15.1932 C.ar    1  UNL1        0.0378
      8 C          63.5203   89.8353   16.3410 C.ar    1  UNL1        0.0031
      9 C          62.8243   88.6236   16.8859 C.ar    1  UNL1        0.0008
     10 C          63.0842   87.2748   16.2832 C.ar    1  UNL1        0.0103
     11 C          64.0401   87.1378   15.1355 C.ar    1  UNL1        0.0685
     12 C          64.7362   88.3496   14.5905 C.ar    1  UNL1        0.0134
     13 C          64.3000   85.7891   14.5327 C.1     1  UNL1        0.1004
     14 N          64.5599   84.4403   13.9299 N.1     1  UNL1       -0.1908
     15 C          66.1080   93.5034   11.9159 C.2     1  UNL1        0.0931
     16 O          66.0365   94.9983   12.0169 O.co2   1  UNL1       -0.5429
     17 O          66.3650   92.8528   10.5891 O.co2   1  UNL1       -0.5429
     18 O          64.2357   90.8405   12.1457 O.3     1  UNL1       -0.3887
     19 C          62.8042   90.4701   12.3978 C.3     1  UNL1        0.2631
     20 C          62.0587   89.6345   11.3999 C.ar    1  UNL1        0.0240
     21 C          60.9809   90.2531   10.5598 C.ar    1  UNL1        0.0001
     22 C          60.2354   89.4175    9.5618 C.ar    1  UNL1        0.0101
     23 C          60.5676   87.9634    9.4039 C.ar    1  UNL1        0.0684
     24 C          61.6454   87.3447   10.2440 C.ar    1  UNL1        0.0101
     25 C          62.3910   88.1803   11.2420 C.ar    1  UNL1        0.0001
     26 C          59.8221   87.1278    8.4060 C.1     1  UNL1        0.1004
     27 N          59.0766   86.2921    7.4079 N.1     1  UNL1       -0.1908
@<TRIPOS>UNITY_ATOM_ATTR
16 1
charge -1
@<TRIPOS>BOND
     1     1     2    1
     2     2     3   ar
     3     3     4   ar
     4     4     7    1
     5     7     8   ar
     6     8     9   ar
     7     9    10   ar
     8    10    11   ar
     9    11    13    1
    10    13    14    3
    11    11    12   ar
    12     4     5   ar
    13     5    18    1
    14    18    19    1
    15    19    20    1
    16    20    21   ar
    17    21    22   ar
    18    22    23   ar
    19    23    26    1
    20    26    27    3
    21    23    24   ar
    22    24    25   ar
    23     5     6   ar
    24     6    15    1
    25    15    16   ar
    26    15    17   ar
    27     6     2   ar
    28    12     7   ar
    29    25    20   ar
