@<TRIPOS>MOLECULE
*****
 48 52 0 0 0
SMALL
GASTEIGER

@<TRIPOS>ATOM
      1 N          62.5201   88.0037   12.2982 N.3     1  UNL1       -0.2661
      2 C          63.8563   87.6899   12.9033 C.3     1  UNL1        0.0926
      3 C          64.1549   88.0991   14.3152 C.3     1  UNL1        0.0950
      4 N          64.4092   89.5412   14.6403 N.am    1  UNL1       -0.2706
      5 C          63.4553   90.2906   15.5225 C.2     1  UNL1        0.4020
      6 O          62.2471   89.5980   16.0796 O.2     1  UNL1       -0.2264
      7 H          65.2022   89.9958   14.2746 H       1  UNL1        0.1527
      8 O          63.7096   91.7327   15.8476 O.3     1  UNL1       -0.4274
      9 C          64.9970   92.1384   16.5017 C.3     1  UNL1        0.2621
     10 C          66.2538   92.2343   15.6885 C.ar    1  UNL1        0.1323
     11 N          66.5251   91.5209   14.3973 N.ar    1  UNL1       -0.2374
     12 C          67.8989   91.9062   13.9345 C.ar    1  UNL1        0.1062
     13 C          68.4767   92.8577   14.9398 C.ar    1  UNL1        0.0573
     14 S          67.4600   93.0606   16.0239 S.2     1  UNL1       -0.0666
     15 C          64.1992   87.0662   15.4020 C.3     1  UNL1        0.0474
     16 C          63.9598   85.6221   15.0745 C.ar    1  UNL1       -0.0205
     17 C          65.0422   84.8105   14.4265 C.ar    1  UNL1       -0.0042
     18 C          64.8028   83.3665   14.0989 C.ar    1  UNL1       -0.0003
     19 C          63.4810   82.7339   14.4193 C.ar    1  UNL1       -0.0000
     20 C          62.3986   83.5454   15.0672 C.ar    1  UNL1       -0.0003
     21 C          62.6380   84.9895   15.3948 C.ar    1  UNL1       -0.0042
     22 C          61.6983   86.9085   11.6858 C.3     1  UNL1        0.0993
     23 C          62.3539   85.8728   10.8212 C.ar    1  UNL1       -0.0031
     24 C          62.5315   86.1246    9.3531 C.ar    1  UNL1        0.0178
     25 C          63.1870   85.0889    8.4885 C.ar    1  UNL1        0.0986
     26 N          63.6650   83.8015    9.0919 N.ar    1  UNL1       -0.2423
     27 C          63.4873   83.5497   10.5599 C.ar    1  UNL1        0.0986
     28 C          62.8318   84.5854   11.4245 C.ar    1  UNL1        0.0178
     29 C          62.0058   89.4128   12.3053 C.3     1  UNL1        0.0926
     30 C          61.8629   90.1656   11.0158 C.3     1  UNL1        0.0950
     31 O          63.7703   91.8521   12.6025 O.2     1  UNL1       -0.2264
     32 C          64.0265   91.5980   11.1466 C.2     1  UNL1        0.4020
     33 N          63.0728   90.7547   10.3532 N.am    1  UNL1       -0.2706
     34 H          63.2410   90.5879    9.3976 H       1  UNL1        0.1527
     35 O          65.2365   92.1871   10.4839 O.3     1  UNL1       -0.4291
     36 C          65.9883   93.3013   11.1497 C.3     1  UNL1        0.2447
     37 C          66.5261   94.4372   10.3309 C.ar    1  UNL1        0.0714
     38 C          67.3133   94.3128    9.0600 C.ar    1  UNL1        0.1053
     39 N          67.6448   95.6957    8.5828 N.ar    1  UNL1       -0.2350
     40 C          67.0626   96.6749    9.5588 C.ar    1  UNL1        0.1343
     41 S          66.3712   95.8970   10.6391 S.2     1  UNL1       -0.0652
     42 C          60.5100   90.3293   10.3889 C.3     1  UNL1        0.0474
     43 C          60.0266   89.3327    9.3775 C.ar    1  UNL1       -0.0205
     44 C          59.6172   87.9578    9.8156 C.ar    1  UNL1       -0.0042
     45 C          59.1337   86.9612    8.8041 C.ar    1  UNL1       -0.0003
     46 C          59.0596   87.3395    7.3545 C.ar    1  UNL1       -0.0000
     47 C          59.4690   88.7144    6.9164 C.ar    1  UNL1       -0.0003
     48 C          59.9525   89.7110    7.9279 C.ar    1  UNL1       -0.0042
@<TRIPOS>BOND
     1    31    32    2
     2    32    33   am
     3    33    30    1
     4    30    42    1
     5    42    43    1
     6    43    44   ar
     7    44    45   ar
     8    45    46   ar
     9    46    47   ar
    10    47    48   ar
    11    30    29    1
    12    29     1    1
    13     1    22    1
    14    22    23    1
    15    23    24   ar
    16    24    25   ar
    17    25    26   ar
    18    26    27   ar
    19    27    28   ar
    20     1     2    1
    21     3     2    1
    22     3    15    1
    23    15    16    1
    24    16    17   ar
    25    17    18   ar
    26    18    19   ar
    27    19    20   ar
    28    20    21   ar
    29     3     4    1
    30     4     5   am
    31     5     6    2
    32     5     8    1
    33     8     9    1
    34     9    10    1
    35    10    11   ar
    36    11    12   ar
    37    12    13   ar
    38    13    14   ar
    39    32    35    1
    40    35    36    1
    41    36    37    1
    42    37    38   ar
    43    38    39   ar
    44    39    40   ar
    45    40    41   ar
    46    48    43   ar
    47    28    23   ar
    48    21    16   ar
    49    14    10   ar
    50    41    37   ar
    51    33    34    1
    52     4     7    1
@<TRIPOS>MOLECULE
*****
 48 52 0 0 0
SMALL
GASTEIGER

@<TRIPOS>ATOM
      1 N          63.5664   88.4522   13.0872 N.3     1  UNL1       -0.2661
      2 C          63.2949   89.8314   13.6109 C.3     1  UNL1        0.0926
      3 C          64.4134   90.8244   13.7239 C.3     1  UNL1        0.0950
      4 N          64.9663   91.4749   12.4905 N.am    1  UNL1       -0.2706
      5 C          64.0627   91.7744   11.3313 C.2     1  UNL1        0.4020
      6 O          62.6062   91.4235   11.4055 O.2     1  UNL1       -0.2264
      7 H          65.9222   91.7052   12.4418 H       1  UNL1        0.1527
      8 O          64.6156   92.4249   10.0979 O.3     1  UNL1       -0.4274
      9 C          66.0456   92.8762   10.0649 C.3     1  UNL1        0.2621
     10 C          66.3718   94.3393   10.1208 C.ar    1  UNL1        0.1323
     11 N          65.9150   95.3049   11.1738 N.ar    1  UNL1       -0.2374
     12 C          66.4729   96.6560   10.8374 C.ar    1  UNL1        0.1062
     13 C          67.2746   96.5254    9.5763 C.ar    1  UNL1        0.0573
     14 S          67.2122   95.0936    9.1334 S.2     1  UNL1       -0.0666
     15 C          64.9791   91.1670   15.0703 C.3     1  UNL1        0.0474
     16 C          66.3360   91.7976   15.1753 C.ar    1  UNL1       -0.0205
     17 C          66.6302   92.7638   16.2844 C.ar    1  UNL1       -0.0042
     18 C          67.9871   93.3944   16.3894 C.ar    1  UNL1       -0.0003
     19 C          69.0498   93.0589   15.3854 C.ar    1  UNL1       -0.0000
     20 C          68.7557   92.0928   14.2763 C.ar    1  UNL1       -0.0003
     21 C          67.3987   91.4621   14.1713 C.ar    1  UNL1       -0.0042
     22 C          64.2623   87.4446   13.9534 C.3     1  UNL1        0.0993
     23 C          63.6408   87.0120   15.2483 C.ar    1  UNL1       -0.0031
     24 C          63.3052   85.5674   15.4734 C.ar    1  UNL1        0.0178
     25 C          62.6837   85.1348   16.7682 C.ar    1  UNL1        0.0986
     26 N          62.3978   86.1467   17.8379 N.ar    1  UNL1       -0.2423
     27 C          62.7333   87.5913   17.6127 C.ar    1  UNL1        0.0986
     28 C          63.3548   88.0239   16.3179 C.ar    1  UNL1        0.0178
     29 C          63.1420   88.0807   11.6973 C.3     1  UNL1        0.0926
     30 C          62.1922   86.9398   11.4829 C.3     1  UNL1        0.0950
     31 O          62.9558   85.5674    8.9267 O.2     1  UNL1       -0.2264
     32 C          63.0793   84.8416   10.2336 C.2     1  UNL1        0.4020
     33 N          62.6975   85.5277   11.5116 N.am    1  UNL1       -0.2706
     34 H          62.7786   85.0513   12.3693 H       1  UNL1        0.1527
     35 O          63.5846   83.4295   10.2624 O.3     1  UNL1       -0.4291
     36 C          64.3003   82.9136   11.4754 C.3     1  UNL1        0.2447
     37 C          63.5668   82.0730   12.4780 C.ar    1  UNL1        0.0714
     38 C          63.4624   82.3457   13.9494 C.ar    1  UNL1        0.1053
     39 N          62.6399   81.2533   14.5661 N.ar    1  UNL1       -0.2350
     40 C          62.2360   80.3054   13.4760 C.ar    1  UNL1        0.1343
     41 S          62.8088   80.8120   12.1854 S.2     1  UNL1       -0.0652
     42 C          60.7371   87.2108   11.2397 C.3     1  UNL1        0.0474
     43 C          60.2722   87.6472    9.8819 C.ar    1  UNL1       -0.0205
     44 C          59.6931   86.6437    8.9292 C.ar    1  UNL1       -0.0042
     45 C          59.2281   87.0801    7.5714 C.ar    1  UNL1       -0.0003
     46 C          59.3423   88.5198    7.1664 C.ar    1  UNL1       -0.0000
     47 C          59.9214   89.5232    8.1192 C.ar    1  UNL1       -0.0003
     48 C          60.3864   89.0869    9.4769 C.ar    1  UNL1       -0.0042
@<TRIPOS>BOND
     1    31    32    2
     2    32    33   am
     3    33    30    1
     4    30    42    1
     5    42    43    1
     6    43    44   ar
     7    44    45   ar
     8    45    46   ar
     9    46    47   ar
    10    47    48   ar
    11    30    29    1
    12    29     1    1
    13     1    22    1
    14    22    23    1
    15    23    24   ar
    16    24    25   ar
    17    25    26   ar
    18    26    27   ar
    19    27    28   ar
    20     1     2    1
    21     3     2    1
    22     3    15    1
    23    15    16    1
    24    16    17   ar
    25    17    18   ar
    26    18    19   ar
    27    19    20   ar
    28    20    21   ar
    29     3     4    1
    30     4     5   am
    31     5     6    2
    32     5     8    1
    33     8     9    1
    34     9    10    1
    35    10    11   ar
    36    11    12   ar
    37    12    13   ar
    38    13    14   ar
    39    32    35    1
    40    35    36    1
    41    36    37    1
    42    37    38   ar
    43    38    39   ar
    44    39    40   ar
    45    40    41   ar
    46    48    43   ar
    47    28    23   ar
    48    21    16   ar
    49    14    10   ar
    50    41    37   ar
    51    33    34    1
    52     4     7    1
@<TRIPOS>MOLECULE
*****
 48 52 0 0 0
SMALL
GASTEIGER

@<TRIPOS>ATOM
      1 N          63.9525   91.2707   11.8716 N.3     1  UNL1       -0.2661
      2 C          62.6896   90.4707   11.9949 C.3     1  UNL1        0.0926
      3 C          62.4522   89.2996   11.0883 C.3     1  UNL1        0.0950
      4 N          62.7606   87.9100   11.5617 N.am    1  UNL1       -0.2706
      5 C          61.6448   86.9818   11.9404 C.2     1  UNL1        0.4020
      6 O          60.2207   87.4432   11.8459 O.2     1  UNL1       -0.2264
      7 H          63.6953   87.6072   11.6237 H       1  UNL1        0.1527
      8 O          61.9532   85.5923   12.4138 O.3     1  UNL1       -0.4274
      9 C          62.3464   84.5336   11.4266 C.3     1  UNL1        0.2621
     10 C          62.9210   83.2347   11.9089 C.ar    1  UNL1        0.1323
     11 N          62.1787   82.1641   12.6523 N.ar    1  UNL1       -0.2374
     12 C          63.1378   81.0460   12.9353 C.ar    1  UNL1        0.1062
     13 C          64.4730   81.4257   12.3668 C.ar    1  UNL1        0.0573
     14 S          64.3391   82.7784   11.7324 S.2     1  UNL1       -0.0666
     15 C          61.9063   89.5179    9.7082 C.3     1  UNL1        0.0474
     16 C          61.1879   88.4070    9.0014 C.ar    1  UNL1       -0.0205
     17 C          59.7917   88.6190    8.4957 C.ar    1  UNL1       -0.0042
     18 C          59.0732   87.5080    7.7889 C.ar    1  UNL1       -0.0003
     19 C          59.7510   86.1851    7.5877 C.ar    1  UNL1       -0.0000
     20 C          61.1471   85.9730    8.0934 C.ar    1  UNL1       -0.0003
     21 C          61.8656   87.0840    8.8003 C.ar    1  UNL1       -0.0042
     22 C          64.0761   92.3174   10.8043 C.3     1  UNL1        0.0993
     23 C          65.4057   92.9553   10.5298 C.ar    1  UNL1       -0.0031
     24 C          66.5689   92.1104   10.1021 C.ar    1  UNL1        0.0178
     25 C          67.8985   92.7482    9.8276 C.ar    1  UNL1        0.0986
     26 N          68.0648   94.2310    9.9808 N.ar    1  UNL1       -0.2423
     27 C          66.9016   95.0760   10.4085 C.ar    1  UNL1        0.0986
     28 C          65.5720   94.4381   10.6830 C.ar    1  UNL1        0.0178
     29 C          65.0917   91.0240   12.8156 C.3     1  UNL1        0.0926
     30 C          64.8256   90.8393   14.2802 C.3     1  UNL1        0.0950
     31 O          63.2405   91.0602   16.8176 O.2     1  UNL1       -0.2264
     32 C          63.2072   89.7899   16.0207 C.2     1  UNL1        0.4020
     33 N          63.9997   89.6794   14.7520 N.am    1  UNL1       -0.2706
     34 H          63.9779   88.8456   14.2290 H       1  UNL1        0.1527
     35 O          62.3812   88.6300   16.4925 O.3     1  UNL1       -0.4291
     36 C          63.0436   87.4561   17.1506 C.3     1  UNL1        0.2447
     37 C          63.3076   86.2061   16.3647 C.ar    1  UNL1        0.0714
     38 C          62.4559   84.9713   16.3596 C.ar    1  UNL1        0.1053
     39 N          63.0915   83.9735   15.4376 N.ar    1  UNL1       -0.2350
     40 C          64.3362   84.5914   14.8727 C.ar    1  UNL1        0.1343
     41 S          64.4697   85.9713   15.4457 S.2     1  UNL1       -0.0652
     42 C          65.3854   91.8145   15.2730 C.3     1  UNL1        0.0474
     43 C          66.8276   92.2196   15.1951 C.ar    1  UNL1       -0.0205
     44 C          67.6972   91.6892   14.0940 C.ar    1  UNL1       -0.0042
     45 C          69.1394   92.0942   14.0162 C.ar    1  UNL1       -0.0003
     46 C          69.7119   93.0297   15.0394 C.ar    1  UNL1       -0.0000
     47 C          68.8423   93.5601   16.1405 C.ar    1  UNL1       -0.0003
     48 C          67.4002   93.1550   16.2183 C.ar    1  UNL1       -0.0042
@<TRIPOS>BOND
     1    31    32    2
     2    32    33   am
     3    33    30    1
     4    30    42    1
     5    42    43    1
     6    43    44   ar
     7    44    45   ar
     8    45    46   ar
     9    46    47   ar
    10    47    48   ar
    11    30    29    1
    12    29     1    1
    13     1    22    1
    14    22    23    1
    15    23    24   ar
    16    24    25   ar
    17    25    26   ar
    18    26    27   ar
    19    27    28   ar
    20     1     2    1
    21     3     2    1
    22     3    15    1
    23    15    16    1
    24    16    17   ar
    25    17    18   ar
    26    18    19   ar
    27    19    20   ar
    28    20    21   ar
    29     3     4    1
    30     4     5   am
    31     5     6    2
    32     5     8    1
    33     8     9    1
    34     9    10    1
    35    10    11   ar
    36    11    12   ar
    37    12    13   ar
    38    13    14   ar
    39    32    35    1
    40    35    36    1
    41    36    37    1
    42    37    38   ar
    43    38    39   ar
    44    39    40   ar
    45    40    41   ar
    46    48    43   ar
    47    28    23   ar
    48    21    16   ar
    49    14    10   ar
    50    41    37   ar
    51    33    34    1
    52     4     7    1
@<TRIPOS>MOLECULE
*****
 48 52 0 0 0
SMALL
GASTEIGER

@<TRIPOS>ATOM
      1 N          63.6075   88.1703   13.3202 N.3     1  UNL1       -0.2661
      2 C          63.1630   89.6019   13.3757 C.3     1  UNL1        0.0926
      3 C          64.1678   90.6905   13.6107 C.3     1  UNL1        0.0950
      4 N          64.5333   91.6270   12.4973 N.am    1  UNL1       -0.2706
      5 C          63.7176   91.6503   11.2388 C.2     1  UNL1        0.4020
      6 O          62.5364   90.7373   11.0935 O.2     1  UNL1       -0.2264
      7 H          65.3085   92.2262   12.5927 H       1  UNL1        0.1527
      8 O          64.0831   92.5867   10.1254 O.3     1  UNL1       -0.4274
      9 C          65.1238   93.6441   10.3460 C.3     1  UNL1        0.2621
     10 C          66.5322   93.4188    9.8814 C.ar    1  UNL1        0.1323
     11 N          67.2764   94.2566    8.8843 N.ar    1  UNL1       -0.2374
     12 C          68.6477   93.6717    8.7189 C.ar    1  UNL1        0.1062
     13 C          68.7510   92.4724    9.6139 C.ar    1  UNL1        0.0573
     14 S          67.4436   92.3160   10.3323 S.2     1  UNL1       -0.0666
     15 C          64.8071   90.8428   14.9591 C.3     1  UNL1        0.0474
     16 C          66.1101   91.5737   15.0931 C.ar    1  UNL1       -0.0205
     17 C          67.2585   91.2310   14.1910 C.ar    1  UNL1       -0.0042
     18 C          68.5615   91.9619   14.3250 C.ar    1  UNL1       -0.0003
     19 C          68.7162   93.0355   15.3611 C.ar    1  UNL1       -0.0000
     20 C          67.5678   93.3782   16.2632 C.ar    1  UNL1       -0.0003
     21 C          66.2647   92.6473   16.1292 C.ar    1  UNL1       -0.0042
     22 C          64.1774   87.5140   14.5427 C.3     1  UNL1        0.0993
     23 C          64.0050   86.0386   14.7513 C.ar    1  UNL1       -0.0031
     24 C          65.0402   85.0825   14.2373 C.ar    1  UNL1        0.0178
     25 C          64.8679   83.6071   14.4459 C.ar    1  UNL1        0.0986
     26 N          63.6603   83.0879   15.1684 N.ar    1  UNL1       -0.2423
     27 C          62.6251   84.0440   15.6824 C.ar    1  UNL1        0.0986
     28 C          62.7974   85.5193   15.4739 C.ar    1  UNL1        0.0178
     29 C          63.4820   87.3950   12.0423 C.3     1  UNL1        0.0926
     30 C          62.1257   87.1061   11.4705 C.3     1  UNL1        0.0950
     31 O          61.3158   86.7800    8.6003 O.2     1  UNL1       -0.2264
     32 C          60.9508   88.0297    9.3453 C.2     1  UNL1        0.4020
     33 N          61.3557   88.1928   10.7803 N.am    1  UNL1       -0.2706
     34 H          61.1161   89.0130   11.2692 H       1  UNL1        0.1527
     35 O          60.1808   89.1164    8.6551 O.3     1  UNL1       -0.4291
     36 C          59.4730   88.8301    7.3640 C.3     1  UNL1        0.2447
     37 C          59.3093   89.9156    6.3417 C.ar    1  UNL1        0.0714
     38 C          60.4153   90.5814    5.5779 C.ar    1  UNL1        0.1053
     39 N          59.8005   91.6031    4.6679 N.ar    1  UNL1       -0.2350
     40 C          58.3144   91.5688    4.8693 C.ar    1  UNL1        0.1343
     41 S          58.0109   90.5258    5.9038 S.2     1  UNL1       -0.0652
     42 C          61.5394   85.7305   11.5888 C.3     1  UNL1        0.0474
     43 C          62.3665   84.5298   11.2365 C.ar    1  UNL1       -0.0205
     44 C          62.2765   83.2862   12.0703 C.ar    1  UNL1       -0.0042
     45 C          63.1036   82.0855   11.7180 C.ar    1  UNL1       -0.0003
     46 C          64.0207   82.1283   10.5318 C.ar    1  UNL1       -0.0000
     47 C          64.1107   83.3719    9.6980 C.ar    1  UNL1       -0.0003
     48 C          63.2836   84.5727   10.0503 C.ar    1  UNL1       -0.0042
@<TRIPOS>BOND
     1    31    32    2
     2    32    33   am
     3    33    30    1
     4    30    42    1
     5    42    43    1
     6    43    44   ar
     7    44    45   ar
     8    45    46   ar
     9    46    47   ar
    10    47    48   ar
    11    30    29    1
    12    29     1    1
    13     1    22    1
    14    22    23    1
    15    23    24   ar
    16    24    25   ar
    17    25    26   ar
    18    26    27   ar
    19    27    28   ar
    20     1     2    1
    21     3     2    1
    22     3    15    1
    23    15    16    1
    24    16    17   ar
    25    17    18   ar
    26    18    19   ar
    27    19    20   ar
    28    20    21   ar
    29     3     4    1
    30     4     5   am
    31     5     6    2
    32     5     8    1
    33     8     9    1
    34     9    10    1
    35    10    11   ar
    36    11    12   ar
    37    12    13   ar
    38    13    14   ar
    39    32    35    1
    40    35    36    1
    41    36    37    1
    42    37    38   ar
    43    38    39   ar
    44    39    40   ar
    45    40    41   ar
    46    48    43   ar
    47    28    23   ar
    48    21    16   ar
    49    14    10   ar
    50    41    37   ar
    51    33    34    1
    52     4     7    1
@<TRIPOS>MOLECULE
*****
 48 52 0 0 0
SMALL
GASTEIGER

@<TRIPOS>ATOM
      1 N          63.0777   90.2569   13.4521 N.3     1  UNL1       -0.2661
      2 C          63.6614   91.3695   12.6326 C.3     1  UNL1        0.0926
      3 C          64.9939   91.9522   13.0000 C.3     1  UNL1        0.0950
      4 N          65.4071   93.2849   12.4495 N.am    1  UNL1       -0.2706
      5 C          65.0068   93.6787   11.0586 C.2     1  UNL1        0.4020
      6 O          64.1932   92.7397   10.2182 O.2     1  UNL1       -0.2264
      7 H          65.9411   93.9012   13.0011 H       1  UNL1        0.1527
      8 O          65.4200   95.0114   10.5081 O.3     1  UNL1       -0.4274
      9 C          66.7860   95.1864    9.9136 C.3     1  UNL1        0.2621
     10 C          67.6313   93.9851    9.6099 C.ar    1  UNL1        0.1323
     11 N          68.0158   92.9091   10.5817 N.ar    1  UNL1       -0.2374
     12 C          68.8627   91.9078    9.8535 C.ar    1  UNL1        0.1062
     13 C          69.0017   92.3650    8.4316 C.ar    1  UNL1        0.0573
     14 S          68.2406   93.6489    8.2810 S.2     1  UNL1       -0.0666
     15 C          65.9131   91.2022   13.9180 C.3     1  UNL1        0.0474
     16 C          67.0720   91.9068   14.5587 C.ar    1  UNL1       -0.0205
     17 C          66.8700   92.6830   15.8263 C.ar    1  UNL1       -0.0042
     18 C          68.0289   93.3875   16.4671 C.ar    1  UNL1       -0.0003
     19 C          69.3897   93.3159   15.8402 C.ar    1  UNL1       -0.0000
     20 C          69.5917   92.5398   14.5727 C.ar    1  UNL1       -0.0003
     21 C          68.4328   91.8352   13.9319 C.ar    1  UNL1       -0.0042
     22 C          63.5212   90.0583   14.8712 C.3     1  UNL1        0.0993
     23 C          63.5832   88.6763   15.4511 C.ar    1  UNL1       -0.0031
     24 C          64.3633   87.6034   14.7508 C.ar    1  UNL1        0.0178
     25 C          64.4253   86.2214   15.3307 C.ar    1  UNL1        0.0986
     26 N          63.7073   85.9124   16.6109 N.ar    1  UNL1       -0.2423
     27 C          62.9273   86.9853   17.3112 C.ar    1  UNL1        0.0986
     28 C          62.8652   88.3672   16.7313 C.ar    1  UNL1        0.0178
     29 C          62.0505   89.3430   12.8525 C.3     1  UNL1        0.0926
     30 C          62.3783   88.5515   11.6212 C.3     1  UNL1        0.0950
     31 O          61.1672   85.8581   12.1493 O.2     1  UNL1       -0.2264
     32 C          62.6519   85.9935   11.9843 C.2     1  UNL1        0.4020
     33 N          63.2575   87.3401   11.7203 N.am    1  UNL1       -0.2706
     34 H          64.2320   87.4290   11.6120 H       1  UNL1        0.1527
     35 O          63.5311   84.7821   12.0834 O.3     1  UNL1       -0.4291
     36 C          63.0458   83.4591   11.5696 C.3     1  UNL1        0.2447
     37 C          62.7142   82.3569   12.5314 C.ar    1  UNL1        0.0714
     38 C          62.3170   82.5298   13.9676 C.ar    1  UNL1        0.1053
     39 N          62.0789   81.1681   14.5499 N.ar    1  UNL1       -0.2350
     40 C          62.3291   80.1535   13.4736 C.ar    1  UNL1        0.1343
     41 S          62.7217   80.8883   12.2262 S.2     1  UNL1       -0.0652
     42 C          61.8269   88.9713   10.2909 C.3     1  UNL1        0.0474
     43 C          61.2351   87.9479    9.3676 C.ar    1  UNL1       -0.0205
     44 C          62.0668   86.7913    8.8979 C.ar    1  UNL1       -0.0042
     45 C          61.4749   85.7680    7.9746 C.ar    1  UNL1       -0.0003
     46 C          60.0514   85.9012    7.5210 C.ar    1  UNL1       -0.0000
     47 C          59.2197   87.0578    7.9907 C.ar    1  UNL1       -0.0003
     48 C          59.8116   88.0811    8.9140 C.ar    1  UNL1       -0.0042
@<TRIPOS>BOND
     1    31    32    2
     2    32    33   am
     3    33    30    1
     4    30    42    1
     5    42    43    1
     6    43    44   ar
     7    44    45   ar
     8    45    46   ar
     9    46    47   ar
    10    47    48   ar
    11    30    29    1
    12    29     1    1
    13     1    22    1
    14    22    23    1
    15    23    24   ar
    16    24    25   ar
    17    25    26   ar
    18    26    27   ar
    19    27    28   ar
    20     1     2    1
    21     3     2    1
    22     3    15    1
    23    15    16    1
    24    16    17   ar
    25    17    18   ar
    26    18    19   ar
    27    19    20   ar
    28    20    21   ar
    29     3     4    1
    30     4     5   am
    31     5     6    2
    32     5     8    1
    33     8     9    1
    34     9    10    1
    35    10    11   ar
    36    11    12   ar
    37    12    13   ar
    38    13    14   ar
    39    32    35    1
    40    35    36    1
    41    36    37    1
    42    37    38   ar
    43    38    39   ar
    44    39    40   ar
    45    40    41   ar
    46    48    43   ar
    47    28    23   ar
    48    21    16   ar
    49    14    10   ar
    50    41    37   ar
    51    33    34    1
    52     4     7    1
@<TRIPOS>MOLECULE
*****
 48 52 0 0 0
SMALL
GASTEIGER

@<TRIPOS>ATOM
      1 N          62.5134   87.0384   10.8499 N.3     1  UNL1       -0.2661
      2 C          62.7641   88.3685   11.4964 C.3     1  UNL1        0.0926
      3 C          62.2162   89.6192   10.8756 C.3     1  UNL1        0.0950
      4 N          61.4402   89.5428    9.5942 N.am    1  UNL1       -0.2706
      5 C          59.9845   89.1817    9.6193 C.2     1  UNL1        0.4020
      6 O          59.3049   88.8971   10.9258 O.2     1  UNL1       -0.2264
      7 H          61.8863   89.7296    8.7367 H       1  UNL1        0.1527
      8 O          59.2085   89.1053    8.3379 O.3     1  UNL1       -0.4274
      9 C          59.8987   89.3444    7.0278 C.3     1  UNL1        0.2621
     10 C          59.3195   90.3144    6.0410 C.ar    1  UNL1        0.1323
     11 N          57.8628   90.6221    5.8583 N.ar    1  UNL1       -0.2374
     12 C          57.7383   91.6449    4.7681 C.ar    1  UNL1        0.1062
     13 C          59.1180   91.9692    4.2770 C.ar    1  UNL1        0.0573
     14 S          60.0953   91.1469    5.0637 S.2     1  UNL1       -0.0666
     15 C          62.4442   90.9465   11.5363 C.3     1  UNL1        0.0474
     16 C          63.8212   91.5404   11.5707 C.ar    1  UNL1       -0.0205
     17 C          64.4609   92.0251   10.3034 C.ar    1  UNL1       -0.0042
     18 C          65.8378   92.6190   10.3378 C.ar    1  UNL1       -0.0003
     19 C          66.5752   92.7283   11.6395 C.ar    1  UNL1       -0.0000
     20 C          65.9356   92.2436   12.9067 C.ar    1  UNL1       -0.0003
     21 C          64.5585   91.6497   12.8724 C.ar    1  UNL1       -0.0042
     22 C          63.0966   86.7382    9.5010 C.3     1  UNL1        0.0993
     23 C          62.2711   86.0308    8.4674 C.ar    1  UNL1       -0.0031
     24 C          62.9270   85.0961    7.4948 C.ar    1  UNL1        0.0178
     25 C          62.1016   84.3887    6.4613 C.ar    1  UNL1        0.0986
     26 N          60.6202   84.6161    6.4004 N.ar    1  UNL1       -0.2423
     27 C          59.9643   85.5509    7.3729 C.ar    1  UNL1        0.0986
     28 C          60.7897   86.2583    8.4065 C.ar    1  UNL1        0.0178
     29 C          61.6794   86.0084   11.5524 C.3     1  UNL1        0.0926
     30 C          62.3419   84.9105   12.3307 C.3     1  UNL1        0.0950
     31 O          65.0065   84.5964   13.6728 O.2     1  UNL1       -0.2264
     32 C          63.7779   84.8500   14.4951 C.2     1  UNL1        0.4020
     33 N          62.4456   85.0071   13.8241 N.am    1  UNL1       -0.2706
     34 H          61.6392   85.1735   14.3638 H       1  UNL1        0.1527
     35 O          63.8816   84.9466   15.9884 O.3     1  UNL1       -0.4291
     36 C          63.3200   86.1395   16.7036 C.3     1  UNL1        0.2447
     37 C          63.5525   87.5180   16.1600 C.ar    1  UNL1        0.0714
     38 C          64.3405   87.8594   14.9301 C.ar    1  UNL1        0.1053
     39 N          64.3129   89.3495   14.7607 N.ar    1  UNL1       -0.2350
     40 C          63.5079   89.9292   15.8859 C.ar    1  UNL1        0.1343
     41 S          63.0379   88.7971   16.7507 S.2     1  UNL1       -0.0652
     42 C          62.9007   83.7161   11.6158 C.3     1  UNL1        0.0474
     43 C          62.6462   82.3369   12.1476 C.ar    1  UNL1       -0.0205
     44 C          62.9929   81.1370   11.3169 C.ar    1  UNL1       -0.0042
     45 C          62.7385   79.7577   11.8488 C.ar    1  UNL1       -0.0003
     46 C          62.1374   79.5783   13.2112 C.ar    1  UNL1       -0.0000
     47 C          61.7907   80.7782   14.0419 C.ar    1  UNL1       -0.0003
     48 C          62.0451   82.1574   13.5101 C.ar    1  UNL1       -0.0042
@<TRIPOS>BOND
     1    31    32    2
     2    32    33   am
     3    33    30    1
     4    30    42    1
     5    42    43    1
     6    43    44   ar
     7    44    45   ar
     8    45    46   ar
     9    46    47   ar
    10    47    48   ar
    11    30    29    1
    12    29     1    1
    13     1    22    1
    14    22    23    1
    15    23    24   ar
    16    24    25   ar
    17    25    26   ar
    18    26    27   ar
    19    27    28   ar
    20     1     2    1
    21     3     2    1
    22     3    15    1
    23    15    16    1
    24    16    17   ar
    25    17    18   ar
    26    18    19   ar
    27    19    20   ar
    28    20    21   ar
    29     3     4    1
    30     4     5   am
    31     5     6    2
    32     5     8    1
    33     8     9    1
    34     9    10    1
    35    10    11   ar
    36    11    12   ar
    37    12    13   ar
    38    13    14   ar
    39    32    35    1
    40    35    36    1
    41    36    37    1
    42    37    38   ar
    43    38    39   ar
    44    39    40   ar
    45    40    41   ar
    46    48    43   ar
    47    28    23   ar
    48    21    16   ar
    49    14    10   ar
    50    41    37   ar
    51    33    34    1
    52     4     7    1
@<TRIPOS>MOLECULE
*****
 48 52 0 0 0
SMALL
GASTEIGER

@<TRIPOS>ATOM
      1 N          62.4069   86.6992   11.5707 N.3     1  UNL1       -0.2661
      2 C          63.5148   85.7064   11.7628 C.3     1  UNL1        0.0926
      3 C          63.5243   84.8177   12.9711 C.3     1  UNL1        0.0950
      4 N          62.7208   85.1895   14.1820 N.am    1  UNL1       -0.2706
      5 C          63.0938   84.6404   15.5271 C.2     1  UNL1        0.4020
      6 O          64.2702   83.7195   15.6613 O.2     1  UNL1       -0.2264
      7 H          61.9487   85.7939   14.0938 H       1  UNL1        0.1527
      8 O          62.2903   85.0122   16.7380 O.3     1  UNL1       -0.4274
      9 C          62.5613   86.3043   17.4501 C.3     1  UNL1        0.2621
     10 C          63.0858   87.4850   16.6880 C.ar    1  UNL1        0.1323
     11 N          63.9906   87.4317   15.4928 N.ar    1  UNL1       -0.2374
     12 C          64.2617   88.8401   15.0535 C.ar    1  UNL1        0.1062
     13 C          63.5244   89.7638   15.9772 C.ar    1  UNL1        0.0573
     14 S          62.7977   88.9264   16.9874 S.2     1  UNL1       -0.0666
     15 C          64.3372   83.5570   12.9685 C.3     1  UNL1        0.0474
     16 C          63.7620   82.2948   12.3975 C.ar    1  UNL1       -0.0205
     17 C          63.1606   81.2656   13.3081 C.ar    1  UNL1       -0.0042
     18 C          62.5854   80.0035   12.7371 C.ar    1  UNL1       -0.0003
     19 C          62.6116   79.7704   11.2556 C.ar    1  UNL1       -0.0000
     20 C          63.2130   80.7996   10.3450 C.ar    1  UNL1       -0.0003
     21 C          63.7882   82.0618   10.9160 C.ar    1  UNL1       -0.0042
     22 C          61.1791   86.3131   10.8004 C.3     1  UNL1        0.0993
     23 C          61.2978   85.8720    9.3716 C.ar    1  UNL1       -0.0031
     24 C          60.1217   85.9943    8.4487 C.ar    1  UNL1        0.0178
     25 C          60.2404   85.5532    7.0200 C.ar    1  UNL1        0.0986
     26 N          61.5353   84.9897    6.5142 N.ar    1  UNL1       -0.2423
     27 C          62.7114   84.8674    7.4371 C.ar    1  UNL1        0.0986
     28 C          62.5927   85.3085    8.8658 C.ar    1  UNL1        0.0178
     29 C          62.5268   88.0781   12.1488 C.3     1  UNL1        0.0926
     30 C          62.4339   89.2776   11.2529 C.3     1  UNL1        0.0950
     31 O          59.7646   89.9182   10.0428 O.2     1  UNL1       -0.2264
     32 C          60.8812   89.4186    9.1747 C.2     1  UNL1        0.4020
     33 N          62.2158   89.0984    9.7797 N.am    1  UNL1       -0.2706
     34 H          62.9487   88.7705    9.2099 H       1  UNL1        0.1527
     35 O          60.6631   89.2394    7.7014 O.3     1  UNL1       -0.4291
     36 C          59.2869   89.3873    7.1235 C.3     1  UNL1        0.2447
     37 C          59.0346   90.3864    6.0336 C.ar    1  UNL1        0.0714
     38 C          57.6919   90.8865    5.5894 C.ar    1  UNL1        0.1053
     39 N          57.9081   91.8701    4.4777 N.ar    1  UNL1       -0.2350
     40 C          59.3844   91.9779    4.2347 C.ar    1  UNL1        0.1343
     41 S          60.0806   91.0609    5.1963 S.2     1  UNL1       -0.0652
     42 C          62.5591   90.6564   11.8303 C.3     1  UNL1        0.0474
     43 C          63.8781   91.3695   11.7898 C.ar    1  UNL1       -0.0205
     44 C          64.3850   91.9360   10.4967 C.ar    1  UNL1       -0.0042
     45 C          65.7040   92.6492   10.4562 C.ar    1  UNL1       -0.0003
     46 C          66.5160   92.7959   11.7087 C.ar    1  UNL1       -0.0000
     47 C          66.0091   92.2295   13.0018 C.ar    1  UNL1       -0.0003
     48 C          64.6902   91.5163   13.0423 C.ar    1  UNL1       -0.0042
@<TRIPOS>BOND
     1    31    32    2
     2    32    33   am
     3    33    30    1
     4    30    42    1
     5    42    43    1
     6    43    44   ar
     7    44    45   ar
     8    45    46   ar
     9    46    47   ar
    10    47    48   ar
    11    30    29    1
    12    29     1    1
    13     1    22    1
    14    22    23    1
    15    23    24   ar
    16    24    25   ar
    17    25    26   ar
    18    26    27   ar
    19    27    28   ar
    20     1     2    1
    21     3     2    1
    22     3    15    1
    23    15    16    1
    24    16    17   ar
    25    17    18   ar
    26    18    19   ar
    27    19    20   ar
    28    20    21   ar
    29     3     4    1
    30     4     5   am
    31     5     6    2
    32     5     8    1
    33     8     9    1
    34     9    10    1
    35    10    11   ar
    36    11    12   ar
    37    12    13   ar
    38    13    14   ar
    39    32    35    1
    40    35    36    1
    41    36    37    1
    42    37    38   ar
    43    38    39   ar
    44    39    40   ar
    45    40    41   ar
    46    48    43   ar
    47    28    23   ar
    48    21    16   ar
    49    14    10   ar
    50    41    37   ar
    51    33    34    1
    52     4     7    1
@<TRIPOS>MOLECULE
*****
 48 52 0 0 0
SMALL
GASTEIGER

@<TRIPOS>ATOM
      1 N          61.9845   89.2086   11.7570 N.3     1  UNL1       -0.2661
      2 C          62.6729   88.0834   11.0429 C.3     1  UNL1        0.0926
      3 C          62.3861   86.6628   11.4295 C.3     1  UNL1        0.0950
      4 N          63.0837   86.0507   12.6079 N.am    1  UNL1       -0.2706
      5 C          63.6303   84.6570   12.5151 C.2     1  UNL1        0.4020
      6 O          63.4793   83.8753   11.2439 O.2     1  UNL1       -0.2264
      7 H          63.1828   86.5638   13.4423 H       1  UNL1        0.1527
      8 O          64.3279   84.0449   13.6935 O.3     1  UNL1       -0.4274
      9 C          63.5483   83.2437   14.6936 C.3     1  UNL1        0.2621
     10 C          62.7902   82.0268   14.2526 C.ar    1  UNL1        0.1323
     11 N          61.3500   81.7299   14.5485 N.ar    1  UNL1       -0.2374
     12 C          61.0089   80.4128   13.9171 C.ar    1  UNL1        0.1062
     13 C          62.2384   79.8955   13.2309 C.ar    1  UNL1        0.0573
     14 S          63.3393   80.8930   13.4382 S.2     1  UNL1       -0.0666
     15 C          61.4016   85.8541   10.6376 C.3     1  UNL1        0.0474
     16 C          61.6918   85.5111    9.2065 C.ar    1  UNL1       -0.0205
     17 C          63.0999   85.2284    8.7736 C.ar    1  UNL1       -0.0042
     18 C          63.3900   84.8853    7.3425 C.ar    1  UNL1       -0.0003
     19 C          62.2721   84.8250    6.3443 C.ar    1  UNL1       -0.0000
     20 C          60.8640   85.1076    6.7771 C.ar    1  UNL1       -0.0003
     21 C          60.5738   85.4507    8.2082 C.ar    1  UNL1       -0.0042
     22 C          60.8278   89.9112   11.1102 C.3     1  UNL1        0.0993
     23 C          60.2004   89.3406    9.8729 C.ar    1  UNL1       -0.0031
     24 C          59.2766   88.1632    9.9750 C.ar    1  UNL1        0.0178
     25 C          58.6493   87.5926    8.7378 C.ar    1  UNL1        0.0986
     26 N          58.9458   88.1994    7.3984 N.ar    1  UNL1       -0.2423
     27 C          59.8696   89.3767    7.2963 C.ar    1  UNL1        0.0986
     28 C          60.4969   89.9473    8.5335 C.ar    1  UNL1        0.0178
     29 C          62.4527   89.6312   13.1179 C.3     1  UNL1        0.0926
     30 C          63.8767   90.0558   13.3228 C.3     1  UNL1        0.0950
     31 O          65.3079   92.2956   14.7138 O.2     1  UNL1       -0.2264
     32 C          65.1576   92.3139   13.2215 C.2     1  UNL1        0.4020
     33 N          64.4420   91.1941   12.5260 N.am    1  UNL1       -0.2706
     34 H          64.3434   91.2061   11.5465 H       1  UNL1        0.1527
     35 O          65.7229   93.4522   12.4247 O.3     1  UNL1       -0.4291
     36 C          66.2235   93.2161   11.0306 C.3     1  UNL1        0.2447
     37 C          66.6709   94.3737   10.1882 C.ar    1  UNL1        0.0714
     38 C          67.4163   94.2832    8.8896 C.ar    1  UNL1        0.1053
     39 N          67.6575   95.6787    8.3953 N.ar    1  UNL1       -0.2350
     40 C          67.0613   96.6318    9.3884 C.ar    1  UNL1        0.1343
     41 S          66.4515   95.8253   10.4965 S.2     1  UNL1       -0.0652
     42 C          64.7354   89.3421   14.3244 C.3     1  UNL1        0.0474
     43 C          64.1038   88.4629   15.3627 C.ar    1  UNL1       -0.0205
     44 C          63.2666   89.0688   16.4499 C.ar    1  UNL1       -0.0042
     45 C          62.6349   88.1896   17.4882 C.ar    1  UNL1       -0.0003
     46 C          62.8405   86.7046   17.4393 C.ar    1  UNL1       -0.0000
     47 C          63.6776   86.0987   16.3521 C.ar    1  UNL1       -0.0003
     48 C          64.3093   86.9779   15.3138 C.ar    1  UNL1       -0.0042
@<TRIPOS>BOND
     1    31    32    2
     2    32    33   am
     3    33    30    1
     4    30    42    1
     5    42    43    1
     6    43    44   ar
     7    44    45   ar
     8    45    46   ar
     9    46    47   ar
    10    47    48   ar
    11    30    29    1
    12    29     1    1
    13     1    22    1
    14    22    23    1
    15    23    24   ar
    16    24    25   ar
    17    25    26   ar
    18    26    27   ar
    19    27    28   ar
    20     1     2    1
    21     3     2    1
    22     3    15    1
    23    15    16    1
    24    16    17   ar
    25    17    18   ar
    26    18    19   ar
    27    19    20   ar
    28    20    21   ar
    29     3     4    1
    30     4     5   am
    31     5     6    2
    32     5     8    1
    33     8     9    1
    34     9    10    1
    35    10    11   ar
    36    11    12   ar
    37    12    13   ar
    38    13    14   ar
    39    32    35    1
    40    35    36    1
    41    36    37    1
    42    37    38   ar
    43    38    39   ar
    44    39    40   ar
    45    40    41   ar
    46    48    43   ar
    47    28    23   ar
    48    21    16   ar
    49    14    10   ar
    50    41    37   ar
    51    33    34    1
    52     4     7    1
@<TRIPOS>MOLECULE
*****
 48 52 0 0 0
SMALL
GASTEIGER

@<TRIPOS>ATOM
      1 N          62.9969   89.3561   13.4186 N.3     1  UNL1       -0.2661
      2 C          63.5785   88.3192   12.5039 C.3     1  UNL1        0.0926
      3 C          63.2430   86.8708   12.7026 C.3     1  UNL1        0.0950
      4 N          63.9587   86.0722   13.7513 N.am    1  UNL1       -0.2706
      5 C          63.2111   85.0512   14.5567 C.2     1  UNL1        0.4020
      6 O          61.7478   84.8289   14.3133 O.2     1  UNL1       -0.2264
      7 H          64.9191   86.2181   13.9111 H       1  UNL1        0.1527
      8 O          63.9267   84.2526   15.6055 O.3     1  UNL1       -0.4274
      9 C          64.3522   82.8438   15.3151 C.3     1  UNL1        0.2621
     10 C          63.5244   81.9821   14.4083 C.ar    1  UNL1        0.1323
     11 N          62.1425   81.4736   14.6946 N.ar    1  UNL1       -0.2374
     12 C          61.6971   80.6549   13.5194 C.ar    1  UNL1        0.1062
     13 C          62.8037   80.6574   12.5067 C.ar    1  UNL1        0.0573
     14 S          63.9330   81.4777   13.0560 S.2     1  UNL1       -0.0666
     15 C          62.1917   86.2210   11.8524 C.3     1  UNL1        0.0474
     16 C          62.5818   85.5081   10.5916 C.ar    1  UNL1       -0.0205
     17 C          63.1723   84.1309   10.6607 C.ar    1  UNL1       -0.0042
     18 C          63.5624   83.4181    9.3999 C.ar    1  UNL1       -0.0003
     19 C          63.3620   84.0823    8.0700 C.ar    1  UNL1       -0.0000
     20 C          62.7716   85.4594    8.0009 C.ar    1  UNL1       -0.0003
     21 C          62.3814   86.1724    9.2617 C.ar    1  UNL1       -0.0042
     22 C          63.4715   89.4552   14.8380 C.3     1  UNL1        0.0993
     23 C          64.4397   90.5312   15.2317 C.ar    1  UNL1       -0.0031
     24 C          64.1049   91.4670   16.3552 C.ar    1  UNL1        0.0178
     25 C          65.0731   92.5429   16.7489 C.ar    1  UNL1        0.0986
     26 N          66.3760   92.6831   16.0191 N.ar    1  UNL1       -0.2423
     27 C          66.7108   91.7473   14.8956 C.ar    1  UNL1        0.0986
     28 C          65.7427   90.6714   14.5019 C.ar    1  UNL1        0.0178
     29 C          61.9406   90.2939   12.9138 C.3     1  UNL1        0.0926
     30 C          61.7856   90.5255   11.4399 C.3     1  UNL1        0.0950
     31 O          63.9680   92.3397   12.4123 O.2     1  UNL1       -0.2264
     32 C          64.0870   91.6740   11.0734 C.2     1  UNL1        0.4020
     33 N          62.9959   90.7669   10.5872 N.am    1  UNL1       -0.2706
     34 H          63.0740   90.3300    9.7085 H       1  UNL1        0.1527
     35 O          65.2974   91.9154   10.2208 O.3     1  UNL1       -0.4291
     36 C          66.4612   92.6850   10.7712 C.3     1  UNL1        0.2447
     37 C          66.7402   94.0750   10.2815 C.ar    1  UNL1        0.0714
     38 C          67.6079   94.4409    9.1139 C.ar    1  UNL1        0.1053
     39 N          67.6045   95.9353    8.9841 N.ar    1  UNL1       -0.2350
     40 C          66.7347   96.4931   10.0714 C.ar    1  UNL1        0.1343
     41 S          66.2005   95.3433   10.8733 S.2     1  UNL1       -0.0652
     42 C          60.4203   90.5158   10.8187 C.3     1  UNL1        0.0474
     43 C          60.0656   89.4701    9.8035 C.ar    1  UNL1       -0.0205
     44 C          59.6626   88.0964   10.2513 C.ar    1  UNL1       -0.0042
     45 C          59.3079   87.0506    9.2361 C.ar    1  UNL1       -0.0003
     46 C          59.3562   87.3785    7.7732 C.ar    1  UNL1       -0.0000
     47 C          59.7593   88.7522    7.3255 C.ar    1  UNL1       -0.0003
     48 C          60.1140   89.7980    8.3407 C.ar    1  UNL1       -0.0042
@<TRIPOS>BOND
     1    31    32    2
     2    32    33   am
     3    33    30    1
     4    30    42    1
     5    42    43    1
     6    43    44   ar
     7    44    45   ar
     8    45    46   ar
     9    46    47   ar
    10    47    48   ar
    11    30    29    1
    12    29     1    1
    13     1    22    1
    14    22    23    1
    15    23    24   ar
    16    24    25   ar
    17    25    26   ar
    18    26    27   ar
    19    27    28   ar
    20     1     2    1
    21     3     2    1
    22     3    15    1
    23    15    16    1
    24    16    17   ar
    25    17    18   ar
    26    18    19   ar
    27    19    20   ar
    28    20    21   ar
    29     3     4    1
    30     4     5   am
    31     5     6    2
    32     5     8    1
    33     8     9    1
    34     9    10    1
    35    10    11   ar
    36    11    12   ar
    37    12    13   ar
    38    13    14   ar
    39    32    35    1
    40    35    36    1
    41    36    37    1
    42    37    38   ar
    43    38    39   ar
    44    39    40   ar
    45    40    41   ar
    46    48    43   ar
    47    28    23   ar
    48    21    16   ar
    49    14    10   ar
    50    41    37   ar
    51    33    34    1
    52     4     7    1
