@<TRIPOS>MOLECULE
*****
 37 41 0 0 0
SMALL
GASTEIGER

@<TRIPOS>ATOM
      1 C          64.6428   90.8068   14.7041 C.ar    1  UNL1        0.0317
      2 C          64.1145   91.5340   15.9049 C.ar    1  UNL1        0.0880
      3 N          63.4397   90.5319   16.7939 N.ar    1  UNL1       -0.2888
      4 N          63.5509   89.1853   16.1425 N.ar    1  UNL1       -0.2292
      5 C          63.2025   87.7337   16.2893 C.ar    1  UNL1        0.1527
      6 C          63.7308   87.0065   15.0885 C.ar    1  UNL1        0.1050
      7 N          64.4057   88.0086   14.1996 N.ar    1  UNL1       -0.2252
      8 C          64.2945   89.3552   14.8509 C.ar    1  UNL1        0.1593
      9 H          63.0008   90.7242   17.6539 H       1  UNL1        0.1875
     10 C          67.6258   93.2713   10.1184 C.2     1  UNL1        0.2492
     11 O          69.1251   93.3148   10.1358 O.2     1  UNL1       -0.2699
     12 N          66.8800   92.6552   11.2648 N.am    1  UNL1       -0.2761
     13 C          65.3808   92.6116   11.2475 C.3     1  UNL1        0.0940
     14 C          64.6351   91.9954   12.3939 C.3     1  UNL1        0.0261
     15 C          65.3886   91.4229   13.5577 C.3     1  UNL1        0.0303
     16 C          66.8879   91.4664   13.5751 C.3     1  UNL1        0.0261
     17 C          67.6335   92.0826   12.4286 C.3     1  UNL1        0.0940
     18 C          67.2936   95.1550    8.3603 C.2     1  UNL1        0.0048
     19 C          66.8722   93.8438    8.9547 C.2     1  UNL1        0.0579
     20 C          63.6062   85.5354   14.8233 C.ar    1  UNL1        0.0195
     21 C          62.2514   84.8928   14.7829 C.ar    1  UNL1        0.0047
     22 C          62.1268   83.4217   14.5177 C.ar    1  UNL1        0.0375
     23 C          63.3568   82.5933   14.2928 C.ar    1  UNL1        0.1453
     24 C          64.7115   83.2359   14.3331 C.ar    1  UNL1        0.0375
     25 C          64.8362   84.7070   14.5984 C.ar    1  UNL1        0.0047
     26 O          63.2321   81.1222   14.0275 O.3     1  UNL1       -0.4535
     27 C          63.0871   80.6235   12.6203 C.ar    1  UNL1        0.1453
     28 C          63.3125   81.5559   11.4671 C.ar    1  UNL1        0.0375
     29 C          63.1674   81.0572   10.0600 C.ar    1  UNL1        0.0031
     30 C          62.7970   79.6261    9.8059 C.ar    1  UNL1        0.0002
     31 C          62.5716   78.6936   10.9590 C.ar    1  UNL1        0.0031
     32 C          62.7166   79.1923   12.3663 C.ar    1  UNL1        0.0375
     33 C          62.4568   87.1176   17.4357 C.2     1  UNL1        0.2620
     34 N          62.9466   87.3118   18.8401 N.am    1  UNL1       -0.3240
     35 O          61.2211   86.3072   17.1778 O.2     1  UNL1       -0.2687
     36 H          63.7576   87.8437   19.0095 H       1  UNL1        0.1453
     37 H          62.4572   86.9074   19.5925 H       1  UNL1        0.1453
@<TRIPOS>BOND
     1    18    19    2
     2    19    10    1
     3    10    11    2
     4    10    12   am
     5    12    13    1
     6    13    14    1
     7    14    15    1
     8    15     1    1
     9     1     2   ar
    10     2     3   ar
    11     3     4   ar
    12     4     5   ar
    13     5    33    1
    14    33    34   am
    15    33    35    2
    16     5     6   ar
    17     6    20    1
    18    20    21   ar
    19    21    22   ar
    20    22    23   ar
    21    23    26    1
    22    26    27    1
    23    27    28   ar
    24    28    29   ar
    25    29    30   ar
    26    30    31   ar
    27    31    32   ar
    28    23    24   ar
    29    24    25   ar
    30     6     7   ar
    31     7     8   ar
    32    15    16    1
    33    16    17    1
    34    17    12    1
    35     8     1   ar
    36     8     4   ar
    37    25    20   ar
    38    32    27   ar
    39     3     9    1
    40    34    36    1
    41    34    37    1
@<TRIPOS>MOLECULE
*****
 37 41 0 0 0
SMALL
GASTEIGER

@<TRIPOS>ATOM
      1 C          62.8832   84.8535   14.9756 C.ar    1  UNL1        0.0317
      2 C          62.4233   84.6966   16.3948 C.ar    1  UNL1        0.0880
      3 N          62.5256   86.0343   17.0656 N.ar    1  UNL1       -0.2888
      4 N          63.0486   87.0179   16.0612 N.ar    1  UNL1       -0.2292
      5 C          63.4351   88.4526   15.8550 C.ar    1  UNL1        0.1527
      6 C          63.8949   88.6093   14.4359 C.ar    1  UNL1        0.1050
      7 N          63.7927   87.2717   13.7650 N.ar    1  UNL1       -0.2252
      8 C          63.2697   86.2881   14.7694 C.ar    1  UNL1        0.1593
      9 H          62.2906   86.2321   18.0010 H       1  UNL1        0.1875
     10 C          63.1330   80.5056   10.8484 C.2     1  UNL1        0.2492
     11 O          63.6231   80.8126    9.4643 O.2     1  UNL1       -0.2699
     12 N          63.0705   81.5926   11.8802 N.am    1  UNL1       -0.2761
     13 C          62.5804   81.2856   13.2642 C.3     1  UNL1        0.0940
     14 C          62.5180   82.3726   14.2960 C.3     1  UNL1        0.0261
     15 C          62.9456   83.7666   13.9438 C.3     1  UNL1        0.0303
     16 C          63.4358   84.0735   12.5598 C.3     1  UNL1        0.0261
     17 C          63.4982   82.9865   11.5280 C.3     1  UNL1        0.0940
     18 C          62.7049   78.0397   10.1515 C.2     1  UNL1        0.0048
     19 C          62.7053   79.1118   11.2006 C.2     1  UNL1        0.0579
     20 C          64.3731   89.8807   13.7994 C.ar    1  UNL1        0.0195
     21 C          65.5513   90.6100   14.3738 C.ar    1  UNL1        0.0047
     22 C          66.0294   91.8813   13.7373 C.ar    1  UNL1        0.0375
     23 C          65.3294   92.4233   12.5264 C.ar    1  UNL1        0.1453
     24 C          64.1513   91.6940   11.9521 C.ar    1  UNL1        0.0375
     25 C          63.6731   90.4226   12.5886 C.ar    1  UNL1        0.0047
     26 O          65.8076   93.6946   11.8900 O.3     1  UNL1       -0.4535
     27 C          66.6686   93.6413   10.6629 C.ar    1  UNL1        0.1453
     28 C          67.5368   92.4451   10.4071 C.ar    1  UNL1        0.0375
     29 C          68.3978   92.3919    9.1800 C.ar    1  UNL1        0.0031
     30 C          68.3906   93.5348    8.2086 C.ar    1  UNL1        0.0002
     31 C          67.5224   94.7309    8.4643 C.ar    1  UNL1        0.0031
     32 C          66.6614   94.7843    9.6914 C.ar    1  UNL1        0.0375
     33 C          63.3726   89.5395   16.8868 C.2     1  UNL1        0.2620
     34 N          63.3070   89.1879   18.3435 N.am    1  UNL1       -0.3240
     35 O          63.3758   90.9781   16.4619 O.2     1  UNL1       -0.2687
     36 H          63.3050   88.2437   18.6224 H       1  UNL1        0.1453
     37 H          63.2661   89.9013   19.0207 H       1  UNL1        0.1453
@<TRIPOS>BOND
     1    18    19    2
     2    19    10    1
     3    10    11    2
     4    10    12   am
     5    12    13    1
     6    13    14    1
     7    14    15    1
     8    15     1    1
     9     1     2   ar
    10     2     3   ar
    11     3     4   ar
    12     4     5   ar
    13     5    33    1
    14    33    34   am
    15    33    35    2
    16     5     6   ar
    17     6    20    1
    18    20    21   ar
    19    21    22   ar
    20    22    23   ar
    21    23    26    1
    22    26    27    1
    23    27    28   ar
    24    28    29   ar
    25    29    30   ar
    26    30    31   ar
    27    31    32   ar
    28    23    24   ar
    29    24    25   ar
    30     6     7   ar
    31     7     8   ar
    32    15    16    1
    33    16    17    1
    34    17    12    1
    35     8     1   ar
    36     8     4   ar
    37    25    20   ar
    38    32    27   ar
    39     3     9    1
    40    34    36    1
    41    34    37    1
@<TRIPOS>MOLECULE
*****
 37 41 0 0 0
SMALL
GASTEIGER

@<TRIPOS>ATOM
      1 C          63.3367   87.0753   15.9969 C.ar    1  UNL1        0.0317
      2 C          62.7843   87.4133   17.3499 C.ar    1  UNL1        0.0880
      3 N          63.0141   88.8756   17.5923 N.ar    1  UNL1       -0.2888
      4 N          63.7085   89.4414   16.3891 N.ar    1  UNL1       -0.2292
      5 C          64.2797   90.6949   15.7953 C.ar    1  UNL1        0.1527
      6 C          64.8320   90.3569   14.4423 C.ar    1  UNL1        0.1050
      7 N          64.6023   88.8946   14.1999 N.ar    1  UNL1       -0.2252
      8 C          63.9079   88.3288   15.4031 C.ar    1  UNL1        0.1593
      9 H          62.7547   89.3761   18.3994 H       1  UNL1        0.1875
     10 C          63.2727   81.6604   13.4133 C.2     1  UNL1        0.2492
     11 O          62.5388   80.5266   14.0659 O.2     1  UNL1       -0.2699
     12 N          63.2887   83.0141   14.0592 N.am    1  UNL1       -0.2761
     13 C          64.0226   84.1479   13.4065 C.3     1  UNL1        0.0940
     14 C          64.0386   85.5016   14.0525 C.3     1  UNL1        0.0261
     15 C          63.3206   85.7216   15.3510 C.3     1  UNL1        0.0303
     16 C          62.5867   84.5879   16.0037 C.3     1  UNL1        0.0261
     17 C          62.5708   83.2341   15.3577 C.3     1  UNL1        0.0940
     18 C          63.2132   81.3378   10.8361 C.2     1  UNL1        0.0048
     19 C          63.9906   81.4405   12.1148 C.2     1  UNL1        0.0579
     20 C          65.4974   91.3133   13.4976 C.ar    1  UNL1        0.0195
     21 C          66.9146   91.7415   13.7385 C.ar    1  UNL1        0.0047
     22 C          67.5800   92.6980   12.7937 C.ar    1  UNL1        0.0375
     23 C          66.8281   93.2262   11.6082 C.ar    1  UNL1        0.1453
     24 C          65.4109   92.7980   11.3673 C.ar    1  UNL1        0.0375
     25 C          64.7455   91.8416   12.3121 C.ar    1  UNL1        0.0047
     26 O          67.4935   94.1827   10.6634 O.3     1  UNL1       -0.4535
     27 C          66.6620   95.0738    9.7891 C.ar    1  UNL1        0.1453
     28 C          65.5094   95.8349   10.3743 C.ar    1  UNL1        0.0375
     29 C          64.6778   96.7259    9.5000 C.ar    1  UNL1        0.0031
     30 C          64.9988   96.8560    8.0405 C.ar    1  UNL1        0.0002
     31 C          66.1514   96.0950    7.4553 C.ar    1  UNL1        0.0031
     32 C          66.9830   95.2038    8.3297 C.ar    1  UNL1        0.0375
     33 C          64.2957   92.0486   16.4412 C.2     1  UNL1        0.2620
     34 N          65.6000   92.7488   16.6831 N.am    1  UNL1       -0.3240
     35 O          63.0075   92.7021   16.8452 O.2     1  UNL1       -0.2687
     36 H          66.4456   92.3199   16.4179 H       1  UNL1        0.1453
     37 H          65.6105   93.6373   17.1070 H       1  UNL1        0.1453
@<TRIPOS>BOND
     1    18    19    2
     2    19    10    1
     3    10    11    2
     4    10    12   am
     5    12    13    1
     6    13    14    1
     7    14    15    1
     8    15     1    1
     9     1     2   ar
    10     2     3   ar
    11     3     4   ar
    12     4     5   ar
    13     5    33    1
    14    33    34   am
    15    33    35    2
    16     5     6   ar
    17     6    20    1
    18    20    21   ar
    19    21    22   ar
    20    22    23   ar
    21    23    26    1
    22    26    27    1
    23    27    28   ar
    24    28    29   ar
    25    29    30   ar
    26    30    31   ar
    27    31    32   ar
    28    23    24   ar
    29    24    25   ar
    30     6     7   ar
    31     7     8   ar
    32    15    16    1
    33    16    17    1
    34    17    12    1
    35     8     1   ar
    36     8     4   ar
    37    25    20   ar
    38    32    27   ar
    39     3     9    1
    40    34    36    1
    41    34    37    1
@<TRIPOS>MOLECULE
*****
 37 41 0 0 0
SMALL
GASTEIGER

@<TRIPOS>ATOM
      1 C          59.7196   89.6921    6.7586 C.ar    1  UNL1        0.0317
      2 C          58.7882   88.5164    6.7728 C.ar    1  UNL1        0.0880
      3 N          58.8824   87.8668    8.1216 N.ar    1  UNL1       -0.2888
      4 N          59.8720   88.6410    8.9409 N.ar    1  UNL1       -0.2292
      5 C          60.5419   88.7181   10.2808 C.ar    1  UNL1        0.1527
      6 C          61.4732   89.8938   10.2665 C.ar    1  UNL1        0.1050
      7 N          61.3790   90.5434    8.9178 N.ar    1  UNL1       -0.2252
      8 C          60.3894   89.7692    8.0985 C.ar    1  UNL1        0.1593
      9 H          58.3825   87.0719    8.4172 H       1  UNL1        0.1875
     10 C          60.6097   93.4305    2.1507 C.2     1  UNL1        0.2492
     11 O          59.4733   94.2561    1.6244 O.2     1  UNL1       -0.2699
     12 N          60.3872   92.4959    3.3027 N.am    1  UNL1       -0.2761
     13 C          61.5236   91.6703    3.8289 C.3     1  UNL1        0.0940
     14 C          61.3010   90.7357    4.9809 C.3     1  UNL1        0.0261
     15 C          59.9421   90.6267    5.6066 C.3     1  UNL1        0.0303
     16 C          58.8057   91.4523    5.0803 C.3     1  UNL1        0.0261
     17 C          59.0283   92.3869    3.9283 C.3     1  UNL1        0.0940
     18 C          62.1833   93.0802    0.1134 C.2     1  UNL1        0.0048
     19 C          61.9686   93.5395    1.5251 C.2     1  UNL1        0.0579
     20 C          62.3456   90.3413   11.4016 C.ar    1  UNL1        0.0195
     21 C          62.1683   89.7421   12.7652 C.ar    1  UNL1        0.0047
     22 C          63.0408   90.1896   13.9004 C.ar    1  UNL1        0.0375
     23 C          64.0905   91.2364   13.6720 C.ar    1  UNL1        0.1453
     24 C          64.2678   91.8357   12.3084 C.ar    1  UNL1        0.0375
     25 C          63.3953   91.3882   11.1732 C.ar    1  UNL1        0.0047
     26 O          64.9629   91.6840   14.8071 O.3     1  UNL1       -0.4535
     27 C          66.4313   91.8955   14.5862 C.ar    1  UNL1        0.1453
     28 C          67.2991   92.3688   15.7146 C.ar    1  UNL1        0.0375
     29 C          68.7675   92.5802   15.4937 C.ar    1  UNL1        0.0031
     30 C          69.3683   92.3185   14.1444 C.ar    1  UNL1        0.0002
     31 C          68.5007   91.8452   13.0161 C.ar    1  UNL1        0.0031
     32 C          67.0322   91.6337   13.2370 C.ar    1  UNL1        0.0375
     33 C          60.3194   87.7835   11.4328 C.2     1  UNL1        0.2620
     34 N          59.2937   88.1112   12.4771 N.am    1  UNL1       -0.3240
     35 O          61.1225   86.5212   11.5404 O.2     1  UNL1       -0.2687
     36 H          58.7666   88.9396   12.4065 H       1  UNL1        0.1453
     37 H          59.1477   87.4977   13.2332 H       1  UNL1        0.1453
@<TRIPOS>BOND
     1    18    19    2
     2    19    10    1
     3    10    11    2
     4    10    12   am
     5    12    13    1
     6    13    14    1
     7    14    15    1
     8    15     1    1
     9     1     2   ar
    10     2     3   ar
    11     3     4   ar
    12     4     5   ar
    13     5    33    1
    14    33    34   am
    15    33    35    2
    16     5     6   ar
    17     6    20    1
    18    20    21   ar
    19    21    22   ar
    20    22    23   ar
    21    23    26    1
    22    26    27    1
    23    27    28   ar
    24    28    29   ar
    25    29    30   ar
    26    30    31   ar
    27    31    32   ar
    28    23    24   ar
    29    24    25   ar
    30     6     7   ar
    31     7     8   ar
    32    15    16    1
    33    16    17    1
    34    17    12    1
    35     8     1   ar
    36     8     4   ar
    37    25    20   ar
    38    32    27   ar
    39     3     9    1
    40    34    36    1
    41    34    37    1
@<TRIPOS>MOLECULE
*****
 37 41 0 0 0
SMALL
GASTEIGER

@<TRIPOS>ATOM
      1 C          61.7443   94.4289   -5.8095 C.ar    1  UNL1        0.0317
      2 C          60.5941   94.3875   -6.7714 C.ar    1  UNL1        0.0880
      3 N          59.3309   94.2352   -5.9771 N.ar    1  UNL1       -0.2888
      4 N          59.7004   94.1824   -4.5242 N.ar    1  UNL1       -0.2292
      5 C          59.1480   94.0557   -3.1354 C.ar    1  UNL1        0.1527
      6 C          60.2983   94.0971   -2.1736 C.ar    1  UNL1        0.1050
      7 N          61.5615   94.2494   -2.9679 N.ar    1  UNL1       -0.2252
      8 C          61.1920   94.3021   -4.4207 C.ar    1  UNL1        0.1593
      9 H          58.4193   94.1796   -6.3447 H       1  UNL1        0.1875
     10 C          67.5377   95.0010   -7.2622 C.2     1  UNL1        0.2492
     11 O          68.3897   93.7798   -7.4428 O.2     1  UNL1       -0.2699
     12 N          66.0894   94.8580   -6.8990 N.am    1  UNL1       -0.2761
     13 C          65.2373   96.0792   -6.7183 C.3     1  UNL1        0.0940
     14 C          63.7890   95.9361   -6.3552 C.3     1  UNL1        0.0261
     15 C          63.1927   94.5719   -6.1727 C.3     1  UNL1        0.0303
     16 C          64.0447   93.3507   -6.3534 C.3     1  UNL1        0.0261
     17 C          65.4931   93.4938   -6.7165 C.3     1  UNL1        0.0940
     18 C          69.4866   96.6747   -6.8751 C.2     1  UNL1        0.0048
     19 C          68.1339   96.3652   -7.4446 C.2     1  UNL1        0.0579
     20 C          60.2021   94.0027   -0.6796 C.ar    1  UNL1        0.0195
     21 C          60.0048   92.6684   -0.0236 C.ar    1  UNL1        0.0047
     22 C          59.9086   92.5740    1.4704 C.ar    1  UNL1        0.0375
     23 C          60.0099   93.8140    2.3082 C.ar    1  UNL1        0.1453
     24 C          60.2073   95.1484    1.6522 C.ar    1  UNL1        0.0375
     25 C          60.3034   95.2427    0.1582 C.ar    1  UNL1        0.0047
     26 O          59.9138   93.7197    3.8022 O.3     1  UNL1       -0.4535
     27 C          59.4506   92.4460    4.4450 C.ar    1  UNL1        0.1453
     28 C          60.4545   91.4410    4.9271 C.ar    1  UNL1        0.0375
     29 C          59.9913   90.1674    5.5699 C.ar    1  UNL1        0.0031
     30 C          58.5244   89.8986    5.7306 C.ar    1  UNL1        0.0002
     31 C          57.5206   90.9035    5.2485 C.ar    1  UNL1        0.0031
     32 C          57.9837   92.1772    4.6057 C.ar    1  UNL1        0.0375
     33 C          57.6997   93.9127   -2.7722 C.2     1  UNL1        0.2620
     34 N          56.7717   95.0826   -2.9146 N.am    1  UNL1       -0.3240
     35 O          57.1793   92.5998   -2.2667 O.2     1  UNL1       -0.2687
     36 H          57.1133   95.9443   -3.2464 H       1  UNL1        0.1453
     37 H          55.8211   94.9887   -2.6762 H       1  UNL1        0.1453
@<TRIPOS>BOND
     1    18    19    2
     2    19    10    1
     3    10    11    2
     4    10    12   am
     5    12    13    1
     6    13    14    1
     7    14    15    1
     8    15     1    1
     9     1     2   ar
    10     2     3   ar
    11     3     4   ar
    12     4     5   ar
    13     5    33    1
    14    33    34   am
    15    33    35    2
    16     5     6   ar
    17     6    20    1
    18    20    21   ar
    19    21    22   ar
    20    22    23   ar
    21    23    26    1
    22    26    27    1
    23    27    28   ar
    24    28    29   ar
    25    29    30   ar
    26    30    31   ar
    27    31    32   ar
    28    23    24   ar
    29    24    25   ar
    30     6     7   ar
    31     7     8   ar
    32    15    16    1
    33    16    17    1
    34    17    12    1
    35     8     1   ar
    36     8     4   ar
    37    25    20   ar
    38    32    27   ar
    39     3     9    1
    40    34    36    1
    41    34    37    1
@<TRIPOS>MOLECULE
*****
 37 41 0 0 0
SMALL
GASTEIGER

@<TRIPOS>ATOM
      1 C          62.5083   88.5841   11.4674 C.ar    1  UNL1        0.0317
      2 C          62.2460   87.1569   11.8473 C.ar    1  UNL1        0.0880
      3 N          61.3601   86.5533   10.7981 N.ar    1  UNL1       -0.2888
      4 N          61.0749   87.6074    9.7697 N.ar    1  UNL1       -0.2292
      5 C          60.3511   87.8858    8.4857 C.ar    1  UNL1        0.1527
      6 C          60.6135   89.3129    8.1058 C.ar    1  UNL1        0.1050
      7 N          61.4993   89.9166    9.1550 N.ar    1  UNL1       -0.2252
      8 C          61.7845   88.8625   10.1834 C.ar    1  UNL1        0.1593
      9 H          61.0248   85.6278   10.7865 H       1  UNL1        0.1875
     10 C          65.8635   92.4931   14.5436 C.2     1  UNL1        0.2492
     11 O          66.1297   93.8581   13.9815 O.2     1  UNL1       -0.2699
     12 N          65.0247   91.5158   13.7745 N.am    1  UNL1       -0.2761
     13 C          64.7585   90.1508   14.3366 C.3     1  UNL1        0.0940
     14 C          63.9197   89.1736   13.5675 C.3     1  UNL1        0.0261
     15 C          63.3471   89.5614   12.2364 C.3     1  UNL1        0.0303
     16 C          63.6133   90.9263   11.6743 C.3     1  UNL1        0.0261
     17 C          64.4521   91.9036   12.4435 C.3     1  UNL1        0.0940
     18 C          67.8831   92.3644   16.1728 C.2     1  UNL1        0.0048
     19 C          66.4360   92.1053   15.8746 C.2     1  UNL1        0.0579
     20 C          60.0830   90.0134    6.8902 C.ar    1  UNL1        0.0195
     21 C          58.6038   90.1812    6.7069 C.ar    1  UNL1        0.0047
     22 C          58.0733   90.8817    5.4912 C.ar    1  UNL1        0.0375
     23 C          59.0221   91.4145    4.4588 C.ar    1  UNL1        0.1453
     24 C          60.5013   91.2467    4.6421 C.ar    1  UNL1        0.0375
     25 C          61.0318   90.5462    5.8578 C.ar    1  UNL1        0.0047
     26 O          58.4917   92.1150    3.2431 O.3     1  UNL1       -0.4535
     27 C          59.4376   92.7844    2.2907 C.ar    1  UNL1        0.1453
     28 C          59.6404   92.2215    0.9152 C.ar    1  UNL1        0.0375
     29 C          60.5863   92.8909   -0.0372 C.ar    1  UNL1        0.0031
     30 C          61.3294   94.1233    0.3859 C.ar    1  UNL1        0.0002
     31 C          61.1266   94.6862    1.7613 C.ar    1  UNL1        0.0031
     32 C          60.1807   94.0168    2.7138 C.ar    1  UNL1        0.0375
     33 C          59.5123   86.9085    7.7167 C.2     1  UNL1        0.2620
     34 N          60.1658   85.7815    6.9732 N.am    1  UNL1       -0.3240
     35 O          58.0201   87.0583    7.6911 O.2     1  UNL1       -0.2687
     36 H          61.1452   85.6832    6.9900 H       1  UNL1        0.1453
     37 H          59.6153   85.1401    6.4685 H       1  UNL1        0.1453
@<TRIPOS>BOND
     1    18    19    2
     2    19    10    1
     3    10    11    2
     4    10    12   am
     5    12    13    1
     6    13    14    1
     7    14    15    1
     8    15     1    1
     9     1     2   ar
    10     2     3   ar
    11     3     4   ar
    12     4     5   ar
    13     5    33    1
    14    33    34   am
    15    33    35    2
    16     5     6   ar
    17     6    20    1
    18    20    21   ar
    19    21    22   ar
    20    22    23   ar
    21    23    26    1
    22    26    27    1
    23    27    28   ar
    24    28    29   ar
    25    29    30   ar
    26    30    31   ar
    27    31    32   ar
    28    23    24   ar
    29    24    25   ar
    30     6     7   ar
    31     7     8   ar
    32    15    16    1
    33    16    17    1
    34    17    12    1
    35     8     1   ar
    36     8     4   ar
    37    25    20   ar
    38    32    27   ar
    39     3     9    1
    40    34    36    1
    41    34    37    1
