@<TRIPOS>MOLECULE
*****
 27 28 0 0 0
SMALL
GASTEIGER

@<TRIPOS>ATOM
      1 C          62.4757   88.9085   10.7541 C.ar    1  UNL1        0.0001
      2 C          62.7382   90.3176   10.3120 C.ar    1  UNL1        0.0031
      3 C          63.4426   91.2726   11.2294 C.ar    1  UNL1        0.0368
      4 C          63.8846   90.8185   12.5890 C.ar    1  UNL1        0.1398
      5 C          63.6221   89.4094   13.0312 C.ar    1  UNL1        0.0775
      6 C          62.9176   88.4544   12.1137 C.ar    1  UNL1        0.0042
      7 C          62.6087   84.8175    7.5531 C.3     1  UNL1        0.0521
      8 C          61.8377   85.9080    8.2361 C.ar    1  UNL1        0.0594
      9 C          62.5421   86.8630    9.1536 C.ar    1  UNL1        0.0147
     10 C          61.7712   87.9535    9.8366 C.ar    1  UNL1        0.0027
     11 C          60.2959   88.0889    9.6022 C.ar    1  UNL1        0.0207
     12 C          59.5915   87.1340    8.6847 C.ar    1  UNL1        0.0984
     13 N          60.3624   86.0435    8.0017 N.ar    1  UNL1       -0.2481
     14 C          64.0639   88.9553   14.3907 C.3     1  UNL1        0.3439
     15 F          63.7515   89.7887   15.5981 F       1  UNL1       -0.1931
     16 F          64.8183   87.6678   14.5429 F       1  UNL1       -0.1931
     17 O          64.5890   91.7735   13.5064 O.3     1  UNL1       -0.4742
     18 C          65.6882   92.6474   12.9790 C.3     1  UNL1        0.2192
     19 C          67.0992   92.1398   12.9455 C.3     1  UNL1        0.0798
     20 C          67.2487   92.6479   11.5422 C.3     1  UNL1        0.0193
     21 N          68.5104   91.6321   12.9120 N.3     1  UNL1       -0.3203
     22 H          68.9260   91.8428   12.0046 H       1  UNL1        0.1189
     23 H          68.5123   90.6230   13.0607 H       1  UNL1        0.1189
     24 C          66.9497   91.6316   14.3489 C.3     1  UNL1        0.0179
     25 C          67.0077   92.5880   15.5030 C.3     1  UNL1        0.0014
     26 C          65.9168   92.5881   16.5325 C.3     1  UNL1        0.0000
     27 C          68.1566   93.5443   15.6276 C.3     1  UNL1        0.0000
@<TRIPOS>BOND
     1     7     8    1
     2     8     9   ar
     3     9    10   ar
     4    10     1    1
     5     1     2   ar
     6     2     3   ar
     7     3     4   ar
     8     4    17    1
     9    17    18    1
    10    18    19    1
    11    19    20    1
    12    19    21    1
    13    19    24    1
    14    24    25    1
    15    25    26    1
    16    25    27    1
    17     4     5   ar
    18     5    14    1
    19    14    15    1
    20    14    16    1
    21     5     6   ar
    22    10    11   ar
    23    11    12   ar
    24    12    13   ar
    25    13     8   ar
    26     6     1   ar
    27    21    22    1
    28    21    23    1
@<TRIPOS>MOLECULE
*****
 27 28 0 0 0
SMALL
GASTEIGER

@<TRIPOS>ATOM
      1 C          62.3995   88.9998   10.5460 C.ar    1  UNL1        0.0001
      2 C          62.6939   90.3632    9.9940 C.ar    1  UNL1        0.0031
      3 C          63.4125   91.3745   10.8370 C.ar    1  UNL1        0.0368
      4 C          63.8369   91.0226   12.2321 C.ar    1  UNL1        0.1398
      5 C          63.5426   89.6592   12.7841 C.ar    1  UNL1        0.0775
      6 C          62.8239   88.6479   11.9410 C.ar    1  UNL1        0.0042
      7 C          62.5028   84.7919    7.4992 C.3     1  UNL1        0.0521
      8 C          61.7325   85.8845    8.1796 C.ar    1  UNL1        0.0594
      9 C          62.4512   86.8959    9.0226 C.ar    1  UNL1        0.0147
     10 C          61.6809   87.9885    9.7029 C.ar    1  UNL1        0.0027
     11 C          60.1920   88.0697    9.5403 C.ar    1  UNL1        0.0207
     12 C          59.4733   87.0584    8.6972 C.ar    1  UNL1        0.0984
     13 N          60.2436   85.9658    8.0169 N.ar    1  UNL1       -0.2481
     14 C          63.9669   89.3073   14.1790 C.3     1  UNL1        0.3439
     15 F          64.7404   88.0473   14.4323 F       1  UNL1       -0.1931
     16 F          63.6177   90.2152   15.3208 F       1  UNL1       -0.1931
     17 O          64.5555   92.0339   13.0750 O.3     1  UNL1       -0.4742
     18 C          65.5948   92.9222   12.4579 C.3     1  UNL1        0.2192
     19 C          66.9996   92.4253   12.2855 C.3     1  UNL1        0.0798
     20 C          67.2171   92.5264   13.7661 C.3     1  UNL1        0.0193
     21 N          68.4044   91.9284   12.1130 N.3     1  UNL1       -0.3203
     22 H          68.8622   91.8806   13.0232 H       1  UNL1        0.1189
     23 H          68.9190   92.5671   11.5067 H       1  UNL1        0.1189
     24 C          66.7820   92.3242   10.8048 C.3     1  UNL1        0.0179
     25 C          67.6227   93.1377    9.8659 C.3     1  UNL1        0.0014
     26 C          68.6543   92.4658    9.0091 C.3     1  UNL1        0.0000
     27 C          67.4316   94.6233    9.7838 C.3     1  UNL1        0.0000
@<TRIPOS>BOND
     1     7     8    1
     2     8     9   ar
     3     9    10   ar
     4    10     1    1
     5     1     2   ar
     6     2     3   ar
     7     3     4   ar
     8     4    17    1
     9    17    18    1
    10    18    19    1
    11    19    20    1
    12    19    21    1
    13    19    24    1
    14    24    25    1
    15    25    26    1
    16    25    27    1
    17     4     5   ar
    18     5    14    1
    19    14    15    1
    20    14    16    1
    21     5     6   ar
    22    10    11   ar
    23    11    12   ar
    24    12    13   ar
    25    13     8   ar
    26     6     1   ar
    27    21    22    1
    28    21    23    1
@<TRIPOS>MOLECULE
*****
 27 28 0 0 0
SMALL
GASTEIGER

@<TRIPOS>ATOM
      1 C          64.2194   90.1752   13.6470 C.ar    1  UNL1        0.0001
      2 C          64.1427   88.6887   13.8321 C.ar    1  UNL1        0.0031
      3 C          63.3984   87.8466   12.8387 C.ar    1  UNL1        0.0368
      4 C          62.7308   88.4911   11.6601 C.ar    1  UNL1        0.1398
      5 C          62.8075   89.9777   11.4750 C.ar    1  UNL1        0.0775
      6 C          63.5518   90.8197   12.4685 C.ar    1  UNL1        0.0042
      7 C          68.5830   92.5647   15.1468 C.3     1  UNL1        0.0521
      8 C          67.1456   92.2120   15.3904 C.ar    1  UNL1        0.0594
      9 C          66.4012   91.3700   14.3970 C.ar    1  UNL1        0.0147
     10 C          64.9638   91.0173   14.6405 C.ar    1  UNL1        0.0027
     11 C          64.2707   91.5065   15.8775 C.ar    1  UNL1        0.0207
     12 C          65.0151   92.3485   16.8709 C.ar    1  UNL1        0.0984
     13 N          66.4525   92.7013   16.6274 N.ar    1  UNL1       -0.2481
     14 C          62.1399   90.6222   10.2966 C.3     1  UNL1        0.3439
     15 F          62.9290   91.5098    9.3804 F       1  UNL1       -0.1931
     16 F          60.6832   90.3791   10.0343 F       1  UNL1       -0.1931
     17 O          61.9864   87.6491   10.6667 O.3     1  UNL1       -0.4742
     18 C          61.7726   86.1884   10.9326 C.3     1  UNL1        0.2192
     19 C          62.6120   85.1665   10.2248 C.3     1  UNL1        0.0798
     20 C          62.6531   84.3357   11.4731 C.3     1  UNL1        0.0193
     21 N          63.4515   84.1445    9.5171 N.3     1  UNL1       -0.3203
     22 H          63.6681   83.3802   10.1570 H       1  UNL1        0.1189
     23 H          64.3184   84.5777    9.1991 H       1  UNL1        0.1189
     24 C          62.5710   85.9972    8.9766 C.3     1  UNL1        0.0179
     25 C          61.6497   85.6200    7.8545 C.3     1  UNL1        0.0014
     26 C          60.2237   86.0852    7.8663 C.3     1  UNL1        0.0000
     27 C          62.1544   84.7776    6.7207 C.3     1  UNL1        0.0000
@<TRIPOS>BOND
     1     7     8    1
     2     8     9   ar
     3     9    10   ar
     4    10     1    1
     5     1     2   ar
     6     2     3   ar
     7     3     4   ar
     8     4    17    1
     9    17    18    1
    10    18    19    1
    11    19    20    1
    12    19    21    1
    13    19    24    1
    14    24    25    1
    15    25    26    1
    16    25    27    1
    17     4     5   ar
    18     5    14    1
    19    14    15    1
    20    14    16    1
    21     5     6   ar
    22    10    11   ar
    23    11    12   ar
    24    12    13   ar
    25    13     8   ar
    26     6     1   ar
    27    21    22    1
    28    21    23    1
@<TRIPOS>MOLECULE
*****
 27 28 0 0 0
SMALL
GASTEIGER

@<TRIPOS>ATOM
      1 C          64.0923   89.2768   13.9253 C.ar    1  UNL1        0.0001
      2 C          64.2970   87.8680   14.3980 C.ar    1  UNL1        0.0031
      3 C          63.7854   86.7203   13.5789 C.ar    1  UNL1        0.0368
      4 C          63.0691   86.9813   12.2870 C.ar    1  UNL1        0.1398
      5 C          62.8644   88.3901   11.8143 C.ar    1  UNL1        0.0775
      6 C          63.3761   89.5379   12.6335 C.ar    1  UNL1        0.0042
      7 C          67.6534   92.9642   14.7748 C.3     1  UNL1        0.0521
      8 C          66.3845   92.2682   15.1692 C.ar    1  UNL1        0.0594
      9 C          65.8728   91.1206   14.3501 C.ar    1  UNL1        0.0147
     10 C          64.6040   90.4245   14.7445 C.ar    1  UNL1        0.0027
     11 C          63.8467   90.8762   15.9579 C.ar    1  UNL1        0.0207
     12 C          64.3584   92.0239   16.7770 C.ar    1  UNL1        0.0984
     13 N          65.6273   92.7199   16.3827 N.ar    1  UNL1       -0.2481
     14 C          62.1482   88.6512   10.5225 C.3     1  UNL1        0.3439
     15 F          61.1087   89.7299   10.4460 F       1  UNL1       -0.1931
     16 F          62.4714   87.8335    9.3073 F       1  UNL1       -0.1931
     17 O          62.5575   85.8336   11.4679 O.3     1  UNL1       -0.4742
     18 C          62.6726   84.4312   11.9876 C.3     1  UNL1        0.2192
     19 C          63.8250   83.5679   11.5673 C.3     1  UNL1        0.0798
     20 C          63.5327   83.8778   10.1291 C.3     1  UNL1        0.0193
     21 N          64.9774   82.7045   11.1470 N.3     1  UNL1       -0.3203
     22 H          65.0512   82.7076   10.1297 H       1  UNL1        0.1189
     23 H          64.8245   81.7505   11.4739 H       1  UNL1        0.1189
     24 C          64.1173   83.2579   13.0055 C.3     1  UNL1        0.0179
     25 C          63.0929   82.5523   13.8439 C.3     1  UNL1        0.0014
     26 C          62.6464   83.1515   15.1445 C.3     1  UNL1        0.0000
     27 C          62.5151   81.2476   13.3817 C.3     1  UNL1        0.0000
@<TRIPOS>BOND
     1     7     8    1
     2     8     9   ar
     3     9    10   ar
     4    10     1    1
     5     1     2   ar
     6     2     3   ar
     7     3     4   ar
     8     4    17    1
     9    17    18    1
    10    18    19    1
    11    19    20    1
    12    19    21    1
    13    19    24    1
    14    24    25    1
    15    25    26    1
    16    25    27    1
    17     4     5   ar
    18     5    14    1
    19    14    15    1
    20    14    16    1
    21     5     6   ar
    22    10    11   ar
    23    11    12   ar
    24    12    13   ar
    25    13     8   ar
    26     6     1   ar
    27    21    22    1
    28    21    23    1
@<TRIPOS>MOLECULE
*****
 27 28 0 0 0
SMALL
GASTEIGER

@<TRIPOS>ATOM
      1 C          63.8247   87.4172   13.6381 C.ar    1  UNL1        0.0001
      2 C          64.5286   88.2296   14.6843 C.ar    1  UNL1        0.0031
      3 C          64.6002   89.7220   14.5526 C.ar    1  UNL1        0.0368
      4 C          63.9678   90.4022   13.3746 C.ar    1  UNL1        0.1398
      5 C          63.2639   89.5898   12.3284 C.ar    1  UNL1        0.0775
      6 C          63.1924   88.0973   12.4602 C.ar    1  UNL1        0.0042
      7 C          62.7075   82.7685   11.6031 C.3     1  UNL1        0.0521
      8 C          63.1945   83.6003   12.7523 C.ar    1  UNL1        0.0594
      9 C          63.2661   85.0928   12.6206 C.ar    1  UNL1        0.0147
     10 C          63.7531   85.9247   13.7699 C.ar    1  UNL1        0.0027
     11 C          64.1686   85.2641   15.0509 C.ar    1  UNL1        0.0207
     12 C          64.0970   83.7716   15.1826 C.ar    1  UNL1        0.0984
     13 N          63.6100   82.9398   14.0333 N.ar    1  UNL1       -0.2481
     14 C          62.6316   90.2699   11.1504 C.3     1  UNL1        0.3439
     15 F          63.4701   90.6554    9.9679 F       1  UNL1       -0.1931
     16 F          61.1609   90.5645   11.1550 F       1  UNL1       -0.1931
     17 O          64.0394   91.8947   13.2429 O.3     1  UNL1       -0.4742
     18 C          64.9947   92.5166   12.2679 C.3     1  UNL1        0.2192
     19 C          66.4736   92.4076   12.4936 C.3     1  UNL1        0.0798
     20 C          66.2856   92.8189   13.9238 C.3     1  UNL1        0.0193
     21 N          67.9526   92.2987   12.7194 N.3     1  UNL1       -0.3203
     22 H          68.1673   92.5376   13.6875 H       1  UNL1        0.1189
     23 H          68.4401   92.9408   12.0945 H       1  UNL1        0.1189
     24 C          66.6616   91.9964   11.0634 C.3     1  UNL1        0.0179
     25 C          67.3927   92.8983   10.1136 C.3     1  UNL1        0.0014
     26 C          66.9800   94.3336    9.9743 C.3     1  UNL1        0.0000
     27 C          68.5365   92.3647    9.3030 C.3     1  UNL1        0.0000
@<TRIPOS>BOND
     1     7     8    1
     2     8     9   ar
     3     9    10   ar
     4    10     1    1
     5     1     2   ar
     6     2     3   ar
     7     3     4   ar
     8     4    17    1
     9    17    18    1
    10    18    19    1
    11    19    20    1
    12    19    21    1
    13    19    24    1
    14    24    25    1
    15    25    26    1
    16    25    27    1
    17     4     5   ar
    18     5    14    1
    19    14    15    1
    20    14    16    1
    21     5     6   ar
    22    10    11   ar
    23    11    12   ar
    24    12    13   ar
    25    13     8   ar
    26     6     1   ar
    27    21    22    1
    28    21    23    1
@<TRIPOS>MOLECULE
*****
 27 28 0 0 0
SMALL
GASTEIGER

@<TRIPOS>ATOM
      1 C          63.5044   86.1177   13.4085 C.ar    1  UNL1        0.0001
      2 C          64.2289   86.6208   14.6218 C.ar    1  UNL1        0.0031
      3 C          64.4898   88.0889   14.7845 C.ar    1  UNL1        0.0368
      4 C          64.0262   89.0540   13.7340 C.ar    1  UNL1        0.1398
      5 C          63.3018   88.5510   12.5207 C.ar    1  UNL1        0.0775
      6 C          63.0408   87.0828   12.3579 C.ar    1  UNL1        0.0042
      7 C          63.5530   81.8381   10.4619 C.3     1  UNL1        0.0521
      8 C          63.2678   82.5097   11.7725 C.ar    1  UNL1        0.0594
      9 C          63.5286   83.9779   11.9352 C.ar    1  UNL1        0.0147
     10 C          63.2435   84.6495   13.2458 C.ar    1  UNL1        0.0027
     11 C          62.6974   83.8531   14.3935 C.ar    1  UNL1        0.0207
     12 C          62.4365   82.3850   14.2308 C.ar    1  UNL1        0.0984
     13 N          62.7217   81.7133   12.9202 N.ar    1  UNL1       -0.2481
     14 C          62.8382   89.5161   11.4701 C.3     1  UNL1        0.3439
     15 F          62.4291   90.9064   11.8570 F       1  UNL1       -0.1931
     16 F          62.7838   89.0909   10.0327 F       1  UNL1       -0.1931
     17 O          64.2872   90.5221   13.8967 O.3     1  UNL1       -0.4742
     18 C          65.6548   91.0026   14.2821 C.3     1  UNL1        0.2192
     19 C          65.9779   92.4664   14.2297 C.3     1  UNL1        0.0798
     20 C          66.6307   92.3706   15.5767 C.3     1  UNL1        0.0193
     21 N          66.3011   93.9303   14.1772 N.3     1  UNL1       -0.3203
     22 H          66.7928   94.2007   15.0290 H       1  UNL1        0.1189
     23 H          65.4370   94.4666   14.0987 H       1  UNL1        0.1189
     24 C          65.3252   92.5622   12.8826 C.3     1  UNL1        0.0179
     25 C          66.1479   92.8910   11.6721 C.3     1  UNL1        0.0014
     26 C          65.6620   93.9161   10.6908 C.3     1  UNL1        0.0000
     27 C          67.4565   92.1945   11.4430 C.3     1  UNL1        0.0000
@<TRIPOS>BOND
     1     7     8    1
     2     8     9   ar
     3     9    10   ar
     4    10     1    1
     5     1     2   ar
     6     2     3   ar
     7     3     4   ar
     8     4    17    1
     9    17    18    1
    10    18    19    1
    11    19    20    1
    12    19    21    1
    13    19    24    1
    14    24    25    1
    15    25    26    1
    16    25    27    1
    17     4     5   ar
    18     5    14    1
    19    14    15    1
    20    14    16    1
    21     5     6   ar
    22    10    11   ar
    23    11    12   ar
    24    12    13   ar
    25    13     8   ar
    26     6     1   ar
    27    21    22    1
    28    21    23    1
@<TRIPOS>MOLECULE
*****
 27 28 0 0 0
SMALL
GASTEIGER

@<TRIPOS>ATOM
      1 C          64.2466   89.1889   13.4155 C.ar    1  UNL1        0.0001
      2 C          63.3892   88.8362   12.2363 C.ar    1  UNL1        0.0031
      3 C          62.8037   87.4602   12.1195 C.ar    1  UNL1        0.0368
      4 C          63.0755   86.4367   13.1820 C.ar    1  UNL1        0.1398
      5 C          63.9329   86.7894   14.3612 C.ar    1  UNL1        0.0775
      6 C          64.5185   88.1655   14.4779 C.ar    1  UNL1        0.0042
      7 C          66.7799   92.7812   16.1864 C.3     1  UNL1        0.0521
      8 C          66.0988   92.3611   14.9177 C.ar    1  UNL1        0.0594
      9 C          65.5132   90.9851   14.8009 C.ar    1  UNL1        0.0147
     10 C          64.8322   90.5650   13.5322 C.ar    1  UNL1        0.0027
     11 C          64.7366   91.5209   12.3803 C.ar    1  UNL1        0.0207
     12 C          65.3221   92.8969   12.4970 C.ar    1  UNL1        0.0984
     13 N          66.0032   93.3170   13.7657 N.ar    1  UNL1       -0.2481
     14 C          64.2048   85.7661   15.4236 C.3     1  UNL1        0.3439
     15 F          64.9143   84.4917   15.0735 F       1  UNL1       -0.1931
     16 F          63.7671   86.0170   16.8362 F       1  UNL1       -0.1931
     17 O          62.4900   85.0607   13.0652 O.3     1  UNL1       -0.4742
     18 C          62.5111   84.3461   11.7466 C.3     1  UNL1        0.2192
     19 C          63.6999   83.5159   11.3624 C.3     1  UNL1        0.0798
     20 C          63.6776   84.1195    9.9894 C.3     1  UNL1        0.0193
     21 N          64.8887   82.6857   10.9782 N.3     1  UNL1       -0.3203
     22 H          65.1439   82.8845   10.0108 H       1  UNL1        0.1189
     23 H          64.6575   81.6967   11.0724 H       1  UNL1        0.1189
     24 C          63.7221   82.9123   12.7354 C.3     1  UNL1        0.0179
     25 C          62.8099   81.7685   13.0667 C.3     1  UNL1        0.0014
     26 C          62.7259   80.5858   12.1480 C.3     1  UNL1        0.0000
     27 C          61.9818   81.8075   14.3168 C.3     1  UNL1        0.0000
@<TRIPOS>BOND
     1     7     8    1
     2     8     9   ar
     3     9    10   ar
     4    10     1    1
     5     1     2   ar
     6     2     3   ar
     7     3     4   ar
     8     4    17    1
     9    17    18    1
    10    18    19    1
    11    19    20    1
    12    19    21    1
    13    19    24    1
    14    24    25    1
    15    25    26    1
    16    25    27    1
    17     4     5   ar
    18     5    14    1
    19    14    15    1
    20    14    16    1
    21     5     6   ar
    22    10    11   ar
    23    11    12   ar
    24    12    13   ar
    25    13     8   ar
    26     6     1   ar
    27    21    22    1
    28    21    23    1
@<TRIPOS>MOLECULE
*****
 27 28 0 0 0
SMALL
GASTEIGER

@<TRIPOS>ATOM
      1 C          63.5294   86.4813   13.4205 C.ar    1  UNL1        0.0001
      2 C          64.2484   87.1427   14.5588 C.ar    1  UNL1        0.0031
      3 C          64.4290   88.6317   14.5679 C.ar    1  UNL1        0.0368
      4 C          63.8906   89.4595   13.4387 C.ar    1  UNL1        0.1398
      5 C          63.1717   88.7981   12.3004 C.ar    1  UNL1        0.0775
      6 C          62.9911   87.3090   12.2913 C.ar    1  UNL1        0.0042
      7 C          63.5419   81.9625   10.8553 C.3     1  UNL1        0.0521
      8 C          63.3551   82.7328   12.1287 C.ar    1  UNL1        0.0594
      9 C          63.5357   84.2219   12.1379 C.ar    1  UNL1        0.0147
     10 C          63.3489   84.9922   13.4114 C.ar    1  UNL1        0.0027
     11 C          62.9815   84.2735   14.6756 C.ar    1  UNL1        0.0207
     12 C          62.8009   82.7845   14.6665 C.ar    1  UNL1        0.0984
     13 N          62.9877   82.0142   13.3930 N.ar    1  UNL1       -0.2481
     14 C          62.6333   89.6258   11.1713 C.3     1  UNL1        0.3439
     15 F          62.8560   89.1939    9.7522 F       1  UNL1       -0.1931
     16 F          61.8723   90.8855   11.4612 F       1  UNL1       -0.1931
     17 O          64.0712   90.9485   13.4479 O.3     1  UNL1       -0.4742
     18 C          65.4076   91.5399   13.7862 C.3     1  UNL1        0.2192
     19 C          65.8896   92.7646   13.0667 C.3     1  UNL1        0.0798
     20 C          65.1647   92.3233   11.8299 C.3     1  UNL1        0.0193
     21 N          66.3716   93.9894   12.3472 N.3     1  UNL1       -0.3203
     22 H          66.0161   93.9841   11.3912 H       1  UNL1        0.1189
     23 H          67.3914   93.9947   12.3307 H       1  UNL1        0.1189
     24 C          66.6145   93.2058   14.3036 C.3     1  UNL1        0.0179
     25 C          67.8500   92.4804   14.7478 C.3     1  UNL1        0.0014
     26 C          68.1483   92.3333   16.2104 C.3     1  UNL1        0.0000
     27 C          68.7873   91.9022   13.7294 C.3     1  UNL1        0.0000
@<TRIPOS>BOND
     1     7     8    1
     2     8     9   ar
     3     9    10   ar
     4    10     1    1
     5     1     2   ar
     6     2     3   ar
     7     3     4   ar
     8     4    17    1
     9    17    18    1
    10    18    19    1
    11    19    20    1
    12    19    21    1
    13    19    24    1
    14    24    25    1
    15    25    26    1
    16    25    27    1
    17     4     5   ar
    18     5    14    1
    19    14    15    1
    20    14    16    1
    21     5     6   ar
    22    10    11   ar
    23    11    12   ar
    24    12    13   ar
    25    13     8   ar
    26     6     1   ar
    27    21    22    1
    28    21    23    1
@<TRIPOS>MOLECULE
*****
 27 28 0 0 0
SMALL
GASTEIGER

@<TRIPOS>ATOM
      1 C          63.9408   88.3337   13.9593 C.ar    1  UNL1        0.0001
      2 C          64.3912   87.0516   14.5944 C.ar    1  UNL1        0.0031
      3 C          64.0901   85.7401   13.9318 C.ar    1  UNL1        0.0368
      4 C          63.3386   85.7106   12.6338 C.ar    1  UNL1        0.1398
      5 C          62.8883   86.9927   11.9987 C.ar    1  UNL1        0.0775
      6 C          63.1894   88.3043   12.6615 C.ar    1  UNL1        0.0042
      7 C          66.5030   92.8536   14.0354 C.3     1  UNL1        0.0521
      8 C          65.5230   91.9052   14.6601 C.ar    1  UNL1        0.0594
      9 C          65.2219   90.5937   13.9974 C.ar    1  UNL1        0.0147
     10 C          64.2420   89.6453   14.6220 C.ar    1  UNL1        0.0027
     11 C          63.5631   90.0084   15.9094 C.ar    1  UNL1        0.0207
     12 C          63.8643   91.3199   16.5721 C.ar    1  UNL1        0.0984
     13 N          64.8442   92.2683   15.9474 N.ar    1  UNL1       -0.2481
     14 C          62.1368   86.9633   10.7009 C.3     1  UNL1        0.3439
     15 F          62.6127   87.7852    9.5399 F       1  UNL1       -0.1931
     16 F          60.9095   86.1119   10.5641 F       1  UNL1       -0.1931
     17 O          63.0375   84.3991   11.9712 O.3     1  UNL1       -0.4742
     18 C          63.8027   83.1690   12.3603 C.3     1  UNL1        0.2192
     19 C          63.4528   81.8439   11.7508 C.3     1  UNL1        0.0798
     20 C          63.6013   82.4351   10.3803 C.3     1  UNL1        0.0193
     21 N          63.1028   80.5187   11.1412 N.3     1  UNL1       -0.3203
     22 H          63.1187   80.5975   10.1243 H       1  UNL1        0.1189
     23 H          62.1703   80.2399   11.4460 H       1  UNL1        0.1189
     24 C          63.3043   81.2527   13.1213 C.3     1  UNL1        0.0179
     25 C          62.1370   81.6370   13.9815 C.3     1  UNL1        0.0014
     26 C          62.2204   82.8492   14.8610 C.3     1  UNL1        0.0000
     27 C          60.8863   80.8091   13.9621 C.3     1  UNL1        0.0000
@<TRIPOS>BOND
     1     7     8    1
     2     8     9   ar
     3     9    10   ar
     4    10     1    1
     5     1     2   ar
     6     2     3   ar
     7     3     4   ar
     8     4    17    1
     9    17    18    1
    10    18    19    1
    11    19    20    1
    12    19    21    1
    13    19    24    1
    14    24    25    1
    15    25    26    1
    16    25    27    1
    17     4     5   ar
    18     5    14    1
    19    14    15    1
    20    14    16    1
    21     5     6   ar
    22    10    11   ar
    23    11    12   ar
    24    12    13   ar
    25    13     8   ar
    26     6     1   ar
    27    21    22    1
    28    21    23    1
