@<TRIPOS>MOLECULE
*****
 31 35 0 0 0
SMALL
GASTEIGER

@<TRIPOS>ATOM
      1 N          63.0062   90.2352   12.9348 N.3     1  UNL1       -0.2585
      2 C          66.7970   93.2731   15.3120 C.ar    1  UNL1        0.0203
      3 C          65.7995   92.2722   15.8154 C.ar    1  UNL1        0.0985
      4 N          64.8684   91.5932   14.8552 N.ar    1  UNL1       -0.2471
      5 C          64.9348   91.9150   13.3916 C.ar    1  UNL1        0.0695
      6 C          65.9322   92.9159   12.8883 C.ar    1  UNL1       -0.0073
      7 C          66.8633   93.5949   13.8485 C.ar    1  UNL1       -0.0015
      8 C          65.9986   93.2377   11.4247 C.3     1  UNL1        0.0277
      9 C          65.0675   92.5587   10.4645 C.3     1  UNL1        0.0065
     10 C          64.0700   91.5578   10.9679 C.3     1  UNL1        0.0224
     11 C          64.0037   91.2360   12.4314 C.3     1  UNL1        0.0982
     12 C          63.3497   89.3545   14.0994 C.3     1  UNL1        0.0743
     13 C          64.2434   88.1658   13.9029 C.3     1  UNL1        0.0347
     14 C          64.2345   87.0475   14.9025 C.3     1  UNL1        0.0736
     15 N          63.6495   85.7165   14.5336 N.3     1  UNL1       -0.2703
     16 C          63.4371   85.3644   13.0911 C.3     1  UNL1        0.0894
     17 C          62.8520   84.0333   12.7222 C.3     1  UNL1        0.0862
     18 N          62.4794   83.0543   13.7958 N.3     1  UNL1       -0.2951
     19 C          62.6918   83.4064   15.2384 C.3     1  UNL1        0.0862
     20 C          63.2768   84.7374   15.6073 C.3     1  UNL1        0.0894
     21 H          63.0149   82.2046   13.6182 H       1  UNL1        0.1233
     22 C          61.6652   90.1150   12.2735 C.3     1  UNL1        0.1979
     23 C          61.4485   89.0929   11.1972 C.2     1  UNL1        0.3675
     24 N          60.1992   88.9185   10.3855 N.2     1  UNL1       -0.0337
     25 C          60.4217   87.7835    9.4304 C.2     1  UNL1        0.2318
     26 C          59.5408   87.1618    8.3877 C.2     1  UNL1        0.0498
     27 C          60.0466   86.0131    7.5663 C.2     1  UNL1       -0.0002
     28 C          61.4333   85.4861    7.7877 C.2     1  UNL1       -0.0172
     29 C          62.3144   86.1078    8.8305 C.3     1  UNL1        0.1037
     30 C          61.8086   87.2565    9.6518 C.2     1  UNL1        0.2175
     31 N          62.4432   88.0658   10.7438 N.2     1  UNL1       -0.0375
@<TRIPOS>BOND
     1     2     3   ar
     2     3     4   ar
     3     4     5   ar
     4     5     6   ar
     5     6     7   ar
     6     6     8    1
     7     8     9    1
     8     9    10    1
     9    10    11    1
    10    11     1    1
    11     1    12    1
    12    12    13    1
    13    13    14    1
    14    14    15    1
    15    15    16    1
    16    16    17    1
    17    17    18    1
    18    18    19    1
    19    19    20    1
    20     1    22    1
    21    22    23    1
    22    23    24    2
    23    24    25    1
    24    25    26    2
    25    26    27    1
    26    27    28    2
    27    28    29    1
    28    29    30    1
    29    30    31    2
    30     7     2   ar
    31    20    15    1
    32    31    23    1
    33    11     5    1
    34    30    25    1
    35    18    21    1
@<TRIPOS>MOLECULE
*****
 31 35 0 0 0
SMALL
GASTEIGER

@<TRIPOS>ATOM
      1 N          63.0060   90.2040   12.9837 N.3     1  UNL1       -0.2585
      2 C          66.7920   93.2433   15.3668 C.ar    1  UNL1        0.0203
      3 C          65.7971   92.2388   15.8680 C.ar    1  UNL1        0.0985
      4 N          64.8667   91.5605   14.9066 N.ar    1  UNL1       -0.2471
      5 C          64.9313   91.8867   13.4439 C.ar    1  UNL1        0.0695
      6 C          65.9261   92.8912   12.9427 C.ar    1  UNL1       -0.0073
      7 C          66.8565   93.5695   13.9042 C.ar    1  UNL1       -0.0015
      8 C          65.9907   93.2175   11.4800 C.3     1  UNL1        0.0277
      9 C          65.0603   92.5392   10.5186 C.3     1  UNL1        0.0065
     10 C          64.0654   91.5347   11.0198 C.3     1  UNL1        0.0224
     11 C          64.0009   91.2085   12.4825 C.3     1  UNL1        0.0982
     12 C          63.3585   89.3093   14.1348 C.3     1  UNL1        0.0743
     13 C          64.2799   88.1443   13.9245 C.3     1  UNL1        0.0347
     14 C          64.2793   87.0026   14.8974 C.3     1  UNL1        0.0736
     15 N          63.6718   85.6871   14.5096 N.3     1  UNL1       -0.2703
     16 C          63.2899   84.6960   15.5688 C.3     1  UNL1        0.0894
     17 C          62.6824   83.3805   15.1809 C.3     1  UNL1        0.0862
     18 N          62.4567   83.0562   13.7339 N.3     1  UNL1       -0.2951
     19 C          62.8385   84.0473   12.6747 C.3     1  UNL1        0.0862
     20 C          63.4461   85.3627   13.0625 C.3     1  UNL1        0.0894
     21 H          61.4583   82.8780   13.6243 H       1  UNL1        0.1233
     22 C          61.6586   90.0943   12.3337 C.3     1  UNL1        0.1979
     23 C          61.4307   89.0877   11.2452 C.2     1  UNL1        0.3675
     24 N          62.4353   88.0968   10.7362 N.2     1  UNL1       -0.0337
     25 C          61.7837   87.2919    9.6510 C.2     1  UNL1        0.2318
     26 C          62.2899   86.1735    8.7892 C.2     1  UNL1        0.0498
     27 C          61.3889   85.5484    7.7658 C.2     1  UNL1       -0.0002
     28 C          59.9817   86.0418    7.6041 C.2     1  UNL1       -0.0172
     29 C          59.4754   87.1603    8.4659 C.3     1  UNL1        0.1037
     30 C          60.3764   87.7854    9.4894 C.2     1  UNL1        0.2175
     31 N          60.1583   88.8952   10.4747 N.2     1  UNL1       -0.0375
@<TRIPOS>BOND
     1     2     3   ar
     2     3     4   ar
     3     4     5   ar
     4     5     6   ar
     5     6     7   ar
     6     6     8    1
     7     8     9    1
     8     9    10    1
     9    10    11    1
    10    11     1    1
    11     1    12    1
    12    12    13    1
    13    13    14    1
    14    14    15    1
    15    15    16    1
    16    16    17    1
    17    17    18    1
    18    18    19    1
    19    19    20    1
    20     1    22    1
    21    22    23    1
    22    23    24    2
    23    24    25    1
    24    25    26    2
    25    26    27    1
    26    27    28    2
    27    28    29    1
    28    29    30    1
    29    30    31    2
    30     7     2   ar
    31    20    15    1
    32    31    23    1
    33    11     5    1
    34    30    25    1
    35    18    21    1
@<TRIPOS>MOLECULE
*****
 31 35 0 0 0
SMALL
GASTEIGER

@<TRIPOS>ATOM
      1 N          63.6769   89.8661   13.4475 N.3     1  UNL1       -0.2585
      2 C          65.9733   93.8933   10.6621 C.ar    1  UNL1        0.0203
      3 C          65.0612   92.7613   10.2928 C.ar    1  UNL1        0.0985
      4 N          64.5997   91.7962   11.3444 N.ar    1  UNL1       -0.2471
      5 C          65.0505   91.9632   12.7652 C.ar    1  UNL1        0.0695
      6 C          65.9627   93.0952   13.1345 C.ar    1  UNL1       -0.0073
      7 C          66.4241   94.0602   12.0830 C.ar    1  UNL1       -0.0015
      8 C          66.4135   93.2622   14.5555 C.3     1  UNL1        0.0277
      9 C          65.9521   92.2971   15.6070 C.3     1  UNL1        0.0065
     10 C          65.0398   91.1651   15.2376 C.3     1  UNL1        0.0224
     11 C          64.5891   90.9981   13.8168 C.3     1  UNL1        0.0982
     12 C          64.1668   88.4507   13.5295 C.3     1  UNL1        0.0743
     13 C          64.1580   87.7290   14.8445 C.3     1  UNL1        0.0347
     14 C          64.8963   86.4317   14.9929 C.3     1  UNL1        0.0736
     15 N          64.1946   85.1342   14.7211 N.3     1  UNL1       -0.2703
     16 C          64.7348   84.1917   13.6868 C.3     1  UNL1        0.0894
     17 C          64.0330   82.8941   13.4150 C.3     1  UNL1        0.0862
     18 N          62.7912   82.5390   14.1776 N.3     1  UNL1       -0.2951
     19 C          62.2509   83.4815   15.2119 C.3     1  UNL1        0.0862
     20 C          62.9526   84.7790   15.4837 C.3     1  UNL1        0.0894
     21 H          62.9798   81.6566   14.6531 H       1  UNL1        0.1233
     22 C          62.2747   90.1494   12.9961 C.3     1  UNL1        0.1979
     23 C          61.7106   89.4321   11.8057 C.2     1  UNL1        0.3675
     24 N          61.0128   90.0700   10.6411 N.2     1  UNL1       -0.0337
     25 C          60.6162   88.9831    9.6864 C.2     1  UNL1        0.2318
     26 C          59.9014   89.0166    8.3681 C.2     1  UNL1        0.0498
     27 C          59.6392   87.7406    7.6245 C.2     1  UNL1       -0.0002
     28 C          60.0918   86.4311    8.1990 C.2     1  UNL1       -0.0172
     29 C          60.8066   86.3975    9.5174 C.3     1  UNL1        0.1037
     30 C          61.0688   87.6735   10.2611 C.2     1  UNL1        0.2175
     31 N          61.7452   87.9511   11.5708 N.2     1  UNL1       -0.0375
@<TRIPOS>BOND
     1     2     3   ar
     2     3     4   ar
     3     4     5   ar
     4     5     6   ar
     5     6     7   ar
     6     6     8    1
     7     8     9    1
     8     9    10    1
     9    10    11    1
    10    11     1    1
    11     1    12    1
    12    12    13    1
    13    13    14    1
    14    14    15    1
    15    15    16    1
    16    16    17    1
    17    17    18    1
    18    18    19    1
    19    19    20    1
    20     1    22    1
    21    22    23    1
    22    23    24    2
    23    24    25    1
    24    25    26    2
    25    26    27    1
    26    27    28    2
    27    28    29    1
    28    29    30    1
    29    30    31    2
    30     7     2   ar
    31    20    15    1
    32    31    23    1
    33    11     5    1
    34    30    25    1
    35    18    21    1
@<TRIPOS>MOLECULE
*****
 31 35 0 0 0
SMALL
GASTEIGER

@<TRIPOS>ATOM
      1 N          63.3592   90.0920   12.8590 N.3     1  UNL1       -0.2585
      2 C          66.8282   93.3786   15.3916 C.ar    1  UNL1        0.0203
      3 C          65.9414   92.2559   15.8422 C.ar    1  UNL1        0.0985
      4 N          65.0807   91.5346   14.8478 N.ar    1  UNL1       -0.2471
      5 C          65.1067   91.9360   13.4028 C.ar    1  UNL1        0.0695
      6 C          65.9935   93.0587   12.9522 C.ar    1  UNL1       -0.0073
      7 C          66.8542   93.7800   13.9466 C.ar    1  UNL1       -0.0015
      8 C          66.0196   93.4602   11.5071 C.3     1  UNL1        0.0277
      9 C          65.1588   92.7389   10.5126 C.3     1  UNL1        0.0065
     10 C          64.2720   91.6161   10.9633 C.3     1  UNL1        0.0224
     11 C          64.2460   91.2147   12.4083 C.3     1  UNL1        0.0982
     12 C          61.9481   90.0035   12.3581 C.3     1  UNL1        0.0743
     13 C          61.6695   90.0666   10.8855 C.3     1  UNL1        0.0347
     14 C          62.0206   88.9039   10.0053 C.3     1  UNL1        0.0736
     15 N          60.9742   88.2858    9.1263 N.3     1  UNL1       -0.2703
     16 C          60.8688   86.7932    9.0215 C.3     1  UNL1        0.0894
     17 C          59.8222   86.1751    8.1424 C.3     1  UNL1        0.0862
     18 N          58.8811   87.0496    7.3681 N.3     1  UNL1       -0.2951
     19 C          58.9865   88.5422    7.4729 C.3     1  UNL1        0.0862
     20 C          60.0330   89.1603    8.3519 C.3     1  UNL1        0.0894
     21 H          57.9371   86.7997    7.6627 H       1  UNL1        0.1233
     22 C          63.8836   89.0576   13.8104 C.3     1  UNL1        0.1979
     23 C          63.6941   87.5998   13.5124 C.2     1  UNL1        0.3675
     24 N          63.0257   87.0278   12.2975 N.2     1  UNL1       -0.0337
     25 C          63.0583   85.5325   12.4112 C.2     1  UNL1        0.2318
     26 C          62.5500   84.4460   11.5106 C.2     1  UNL1        0.0498
     27 C          62.7302   83.0074   11.8952 C.2     1  UNL1       -0.0002
     28 C          63.4188   82.6552   13.1804 C.2     1  UNL1       -0.0172
     29 C          63.9271   83.7417   14.0811 C.3     1  UNL1        0.1037
     30 C          63.7469   85.1803   13.6965 C.2     1  UNL1        0.2175
     31 N          64.1399   86.4580   14.3771 N.2     1  UNL1       -0.0375
@<TRIPOS>BOND
     1     2     3   ar
     2     3     4   ar
     3     4     5   ar
     4     5     6   ar
     5     6     7   ar
     6     6     8    1
     7     8     9    1
     8     9    10    1
     9    10    11    1
    10    11     1    1
    11     1    12    1
    12    12    13    1
    13    13    14    1
    14    14    15    1
    15    15    16    1
    16    16    17    1
    17    17    18    1
    18    18    19    1
    19    19    20    1
    20     1    22    1
    21    22    23    1
    22    23    24    2
    23    24    25    1
    24    25    26    2
    25    26    27    1
    26    27    28    2
    27    28    29    1
    28    29    30    1
    29    30    31    2
    30     7     2   ar
    31    20    15    1
    32    31    23    1
    33    11     5    1
    34    30    25    1
    35    18    21    1
@<TRIPOS>MOLECULE
*****
 31 35 0 0 0
SMALL
GASTEIGER

@<TRIPOS>ATOM
      1 N          63.1847   85.2072   13.0528 N.3     1  UNL1       -0.2585
      2 C          61.7970   80.0040   13.5534 C.ar    1  UNL1        0.0203
      3 C          61.6074   81.2183   14.4132 C.ar    1  UNL1        0.0985
      4 N          62.1331   82.5480   13.9597 N.ar    1  UNL1       -0.2471
      5 C          62.8485   82.6633   12.6464 C.ar    1  UNL1        0.0695
      6 C          63.0381   81.4489   11.7866 C.ar    1  UNL1       -0.0073
      7 C          62.5123   80.1193   12.2400 C.ar    1  UNL1       -0.0015
      8 C          63.7535   81.5642   10.4731 C.3     1  UNL1        0.0277
      9 C          64.2793   82.8938   10.0196 C.3     1  UNL1        0.0065
     10 C          64.0896   84.1082   10.8796 C.3     1  UNL1        0.0224
     11 C          63.3743   83.9929   12.1929 C.3     1  UNL1        0.0982
     12 C          62.9780   85.0549   14.5306 C.3     1  UNL1        0.0743
     13 C          63.8849   85.7647   15.4918 C.3     1  UNL1        0.0347
     14 C          63.3584   86.8970   16.3229 C.3     1  UNL1        0.0736
     15 N          63.6281   88.3151   15.9152 N.3     1  UNL1       -0.2703
     16 C          64.3655   88.6019   14.6409 C.3     1  UNL1        0.0894
     17 C          64.6352   90.0201   14.2333 C.3     1  UNL1        0.0862
     18 N          64.1674   91.1514   15.1000 N.3     1  UNL1       -0.2951
     19 C          63.4299   90.8646   16.3743 C.3     1  UNL1        0.0862
     20 C          63.1603   89.4465   16.7820 C.3     1  UNL1        0.0894
     21 H          63.5508   91.7266   14.5260 H       1  UNL1        0.1233
     22 C          63.2018   86.5739   12.4347 C.3     1  UNL1        0.1979
     23 C          62.2835   86.8919   11.2921 C.2     1  UNL1        0.3675
     24 N          61.5621   85.8932   10.4365 N.2     1  UNL1       -0.0337
     25 C          60.7582   86.6485    9.4201 C.2     1  UNL1        0.2318
     26 C          59.8506   86.1911    8.3168 C.2     1  UNL1        0.0498
     27 C          59.1677   87.1993    7.4410 C.2     1  UNL1       -0.0002
     28 C          59.3922   88.6649    7.6684 C.2     1  UNL1       -0.0172
     29 C          60.2997   89.1223    8.7717 C.3     1  UNL1        0.1037
     30 C          60.9827   88.1141    9.6475 C.2     1  UNL1        0.2175
     31 N          61.9255   88.2645   10.8045 N.2     1  UNL1       -0.0375
@<TRIPOS>BOND
     1     2     3   ar
     2     3     4   ar
     3     4     5   ar
     4     5     6   ar
     5     6     7   ar
     6     6     8    1
     7     8     9    1
     8     9    10    1
     9    10    11    1
    10    11     1    1
    11     1    12    1
    12    12    13    1
    13    13    14    1
    14    14    15    1
    15    15    16    1
    16    16    17    1
    17    17    18    1
    18    18    19    1
    19    19    20    1
    20     1    22    1
    21    22    23    1
    22    23    24    2
    23    24    25    1
    24    25    26    2
    25    26    27    1
    26    27    28    2
    27    28    29    1
    28    29    30    1
    29    30    31    2
    30     7     2   ar
    31    20    15    1
    32    31    23    1
    33    11     5    1
    34    30    25    1
    35    18    21    1
@<TRIPOS>MOLECULE
*****
 31 35 0 0 0
SMALL
GASTEIGER

@<TRIPOS>ATOM
      1 N          63.4970   89.0321   13.7991 N.3     1  UNL1       -0.2585
      2 C          60.2513   87.9279    9.6163 C.ar    1  UNL1        0.0203
      3 C          60.5025   87.2688   10.9401 C.ar    1  UNL1        0.0985
      4 N          61.5007   87.8565   11.8931 N.ar    1  UNL1       -0.2471
      5 C          62.2475   89.1034   11.5224 C.ar    1  UNL1        0.0695
      6 C          61.9963   89.7625   10.1986 C.ar    1  UNL1       -0.0073
      7 C          60.9981   89.1747    9.2456 C.ar    1  UNL1       -0.0015
      8 C          62.7431   91.0094    9.8278 C.3     1  UNL1        0.0277
      9 C          63.7413   91.5972   10.7808 C.3     1  UNL1        0.0065
     10 C          63.9926   90.9380   12.1046 C.3     1  UNL1        0.0224
     11 C          63.2457   89.6911   12.4754 C.3     1  UNL1        0.0982
     12 C          62.8254   89.5522   15.0354 C.3     1  UNL1        0.0743
     13 C          63.6265   90.2782   16.0752 C.3     1  UNL1        0.0347
     14 C          64.1137   91.6717   15.8087 C.3     1  UNL1        0.0736
     15 N          65.5571   91.9111   15.4780 N.3     1  UNL1       -0.2703
     16 C          66.1378   91.3584   14.2103 C.3     1  UNL1        0.0894
     17 C          67.5812   91.5979   13.8796 C.3     1  UNL1        0.0862
     18 N          68.4438   92.3901   14.8168 N.3     1  UNL1       -0.2951
     19 C          67.8631   92.9428   16.0845 C.3     1  UNL1        0.0862
     20 C          66.4198   92.7034   16.4152 C.3     1  UNL1        0.0894
     21 H          68.8026   93.1842   14.2865 H       1  UNL1        0.1233
     22 C          64.4199   87.8528   13.8867 C.3     1  UNL1        0.1979
     23 C          63.8664   86.4604   13.8177 C.2     1  UNL1        0.3675
     24 N          63.4336   85.6248   14.9858 N.2     1  UNL1       -0.0337
     25 C          62.9481   84.3071   14.4586 C.2     1  UNL1        0.2318
     26 C          62.4023   83.0906   15.1458 C.2     1  UNL1        0.0498
     27 C          61.9893   81.8954   14.3390 C.2     1  UNL1       -0.0002
     28 C          62.1220   81.9166   12.8451 C.2     1  UNL1       -0.0172
     29 C          62.6678   83.1331   12.1578 C.3     1  UNL1        0.1037
     30 C          63.0809   84.3284   12.9646 C.2     1  UNL1        0.2175
     31 N          63.6484   85.6592   12.5685 N.2     1  UNL1       -0.0375
@<TRIPOS>BOND
     1     2     3   ar
     2     3     4   ar
     3     4     5   ar
     4     5     6   ar
     5     6     7   ar
     6     6     8    1
     7     8     9    1
     8     9    10    1
     9    10    11    1
    10    11     1    1
    11     1    12    1
    12    12    13    1
    13    13    14    1
    14    14    15    1
    15    15    16    1
    16    16    17    1
    17    17    18    1
    18    18    19    1
    19    19    20    1
    20     1    22    1
    21    22    23    1
    22    23    24    2
    23    24    25    1
    24    25    26    2
    25    26    27    1
    26    27    28    2
    27    28    29    1
    28    29    30    1
    29    30    31    2
    30     7     2   ar
    31    20    15    1
    32    31    23    1
    33    11     5    1
    34    30    25    1
    35    18    21    1
@<TRIPOS>MOLECULE
*****
 31 35 0 0 0
SMALL
GASTEIGER

@<TRIPOS>ATOM
      1 N          63.5579   87.4300   13.2128 N.3     1  UNL1       -0.2585
      2 C          60.0355   89.9094    9.9424 C.ar    1  UNL1        0.0203
      3 C          60.8151   90.3402   11.1493 C.ar    1  UNL1        0.0985
      4 N          61.7294   89.3701   11.8371 N.ar    1  UNL1       -0.2471
      5 C          61.8640   87.9693   11.3181 C.ar    1  UNL1        0.0695
      6 C          61.0844   87.5385   10.1112 C.ar    1  UNL1       -0.0073
      7 C          60.1701   88.5086    9.4234 C.ar    1  UNL1       -0.0015
      8 C          61.2190   86.1376    9.5921 C.3     1  UNL1        0.0277
      9 C          62.1332   85.1675   10.2799 C.3     1  UNL1        0.0065
     10 C          62.9129   85.5983   11.4869 C.3     1  UNL1        0.0224
     11 C          62.7782   86.9992   12.0059 C.3     1  UNL1        0.0982
     12 C          63.9127   88.8753   13.3998 C.3     1  UNL1        0.0743
     13 C          64.3474   89.3727   14.7466 C.3     1  UNL1        0.0347
     14 C          64.2024   90.8250   15.0925 C.3     1  UNL1        0.0736
     15 N          65.0585   91.8483   14.4070 N.3     1  UNL1       -0.2703
     16 C          66.0707   92.6275   15.1933 C.3     1  UNL1        0.0894
     17 C          66.9269   93.6509   14.5078 C.3     1  UNL1        0.0862
     18 N          66.7707   93.8951   13.0361 N.3     1  UNL1       -0.2951
     19 C          65.7584   93.1159   12.2498 C.3     1  UNL1        0.0862
     20 C          64.9023   92.0926   12.9353 C.3     1  UNL1        0.0894
     21 H          67.6789   93.7126   12.6093 H       1  UNL1        0.1233
     22 C          63.9827   86.4153   14.2327 C.3     1  UNL1        0.1979
     23 C          63.5747   84.9802   14.0781 C.2     1  UNL1        0.3675
     24 N          64.4005   83.8903   13.4616 N.2     1  UNL1       -0.0337
     25 C          63.6054   82.6195   13.5153 C.2     1  UNL1        0.2318
     26 C          63.9107   81.2244   13.0566 C.2     1  UNL1        0.0498
     27 C          62.8986   80.1338   13.2475 C.2     1  UNL1       -0.0002
     28 C          61.5814   80.4384   13.8971 C.2     1  UNL1       -0.0172
     29 C          61.2761   81.8335   14.3558 C.3     1  UNL1        0.1037
     30 C          62.2881   82.9241   14.1649 C.2     1  UNL1        0.2175
     31 N          62.2691   84.3831   14.5127 N.2     1  UNL1       -0.0375
@<TRIPOS>BOND
     1     2     3   ar
     2     3     4   ar
     3     4     5   ar
     4     5     6   ar
     5     6     7   ar
     6     6     8    1
     7     8     9    1
     8     9    10    1
     9    10    11    1
    10    11     1    1
    11     1    12    1
    12    12    13    1
    13    13    14    1
    14    14    15    1
    15    15    16    1
    16    16    17    1
    17    17    18    1
    18    18    19    1
    19    19    20    1
    20     1    22    1
    21    22    23    1
    22    23    24    2
    23    24    25    1
    24    25    26    2
    25    26    27    1
    26    27    28    2
    27    28    29    1
    28    29    30    1
    29    30    31    2
    30     7     2   ar
    31    20    15    1
    32    31    23    1
    33    11     5    1
    34    30    25    1
    35    18    21    1
@<TRIPOS>MOLECULE
*****
 31 35 0 0 0
SMALL
GASTEIGER

@<TRIPOS>ATOM
      1 N          61.6135   87.8246   11.0684 N.3     1  UNL1       -0.2585
      2 C          62.5966   84.4841    6.9302 C.ar    1  UNL1        0.0203
      3 C          63.3764   84.8932    8.1445 C.ar    1  UNL1        0.0985
      4 N          62.7888   85.8704    9.1191 N.ar    1  UNL1       -0.2471
      5 C          61.4214   86.4384    8.8794 C.ar    1  UNL1        0.0695
      6 C          60.6416   86.0293    7.6652 C.ar    1  UNL1       -0.0073
      7 C          61.2292   85.0522    6.6905 C.ar    1  UNL1       -0.0015
      8 C          59.2741   86.5974    7.4254 C.3     1  UNL1        0.0277
      9 C          58.6865   87.5745    8.4001 C.3     1  UNL1        0.0065
     10 C          59.4663   87.9836    9.6144 C.3     1  UNL1        0.0224
     11 C          60.8337   87.4155    9.8541 C.3     1  UNL1        0.0982
     12 C          62.6113   86.8811   11.6720 C.3     1  UNL1        0.0743
     13 C          62.1431   85.6286   12.3518 C.3     1  UNL1        0.0347
     14 C          63.1403   84.6897   12.9633 C.3     1  UNL1        0.0736
     15 N          62.8644   83.2155   12.9894 N.3     1  UNL1       -0.2703
     16 C          63.2098   82.3667   11.8018 C.3     1  UNL1        0.0894
     17 C          62.9339   80.8925   11.8279 C.3     1  UNL1        0.0862
     18 N          62.3126   80.2671   13.0415 N.3     1  UNL1       -0.2951
     19 C          61.9673   81.1159   14.2291 C.3     1  UNL1        0.0862
     20 C          62.2432   82.5900   14.2030 C.3     1  UNL1        0.0894
     21 H          62.9620   79.5522   13.3694 H       1  UNL1        0.1233
     22 C          61.3955   89.1773   11.6791 C.3     1  UNL1        0.1979
     23 C          62.5597   89.9509   12.2233 C.2     1  UNL1        0.3675
     24 N          63.1377   89.8212   13.6014 N.2     1  UNL1       -0.0337
     25 C          64.2855   90.7801   13.7148 C.2     1  UNL1        0.2318
     26 C          65.2281   91.0889   14.8400 C.2     1  UNL1        0.0498
     27 C          66.3020   92.1201   14.6573 C.2     1  UNL1       -0.0002
     28 C          66.4334   92.8425   13.3493 C.2     1  UNL1       -0.0172
     29 C          65.4908   92.5337   12.2240 C.3     1  UNL1        0.1037
     30 C          64.4169   91.5025   12.4067 C.2     1  UNL1        0.2175
     31 N          63.3503   90.9900   11.4850 N.2     1  UNL1       -0.0375
@<TRIPOS>BOND
     1     2     3   ar
     2     3     4   ar
     3     4     5   ar
     4     5     6   ar
     5     6     7   ar
     6     6     8    1
     7     8     9    1
     8     9    10    1
     9    10    11    1
    10    11     1    1
    11     1    12    1
    12    12    13    1
    13    13    14    1
    14    14    15    1
    15    15    16    1
    16    16    17    1
    17    17    18    1
    18    18    19    1
    19    19    20    1
    20     1    22    1
    21    22    23    1
    22    23    24    2
    23    24    25    1
    24    25    26    2
    25    26    27    1
    26    27    28    2
    27    28    29    1
    28    29    30    1
    29    30    31    2
    30     7     2   ar
    31    20    15    1
    32    31    23    1
    33    11     5    1
    34    30    25    1
    35    18    21    1
@<TRIPOS>MOLECULE
*****
 31 35 0 0 0
SMALL
GASTEIGER

@<TRIPOS>ATOM
      1 N          62.3821   87.5078   11.9626 N.3     1  UNL1       -0.2585
      2 C          65.0922   91.3804   14.5908 C.ar    1  UNL1        0.0203
      3 C          64.6547   89.9911   14.9489 C.ar    1  UNL1        0.0985
      4 N          63.8971   89.1634   13.9535 N.ar    1  UNL1       -0.2471
      5 C          63.5772   89.7249   12.5999 C.ar    1  UNL1        0.0695
      6 C          64.0147   91.1142   12.2417 C.ar    1  UNL1       -0.0073
      7 C          64.7723   91.9420   13.2372 C.ar    1  UNL1       -0.0015
      8 C          63.6947   91.6758   10.8881 C.3     1  UNL1        0.0277
      9 C          62.9372   90.8480    9.8926 C.3     1  UNL1        0.0065
     10 C          62.4996   89.4586   10.2508 C.3     1  UNL1        0.0224
     11 C          62.8196   88.8971   11.6044 C.3     1  UNL1        0.0982
     12 C          61.0549   86.9939   11.4888 C.3     1  UNL1        0.0743
     13 C          60.2662   87.7731   10.4783 C.3     1  UNL1        0.0347
     14 C          59.8312   87.1193    9.2003 C.3     1  UNL1        0.0736
     15 N          60.7926   86.2628    8.4309 N.3     1  UNL1       -0.2703
     16 C          60.3324   85.5373    7.2013 C.3     1  UNL1        0.0894
     17 C          61.2940   84.6808    6.4319 C.3     1  UNL1        0.0862
     18 N          62.7156   84.5498    6.8921 N.3     1  UNL1       -0.2951
     19 C          63.1757   85.2753    8.1217 C.3     1  UNL1        0.0862
     20 C          62.2143   86.1318    8.8911 C.3     1  UNL1        0.0894
     21 H          63.3046   84.8701    6.1234 H       1  UNL1        0.1233
     22 C          63.2717   86.6323   12.7946 C.3     1  UNL1        0.1979
     23 C          63.0462   85.1498   12.8279 C.2     1  UNL1        0.3675
     24 N          62.4796   84.3697   13.9770 N.2     1  UNL1       -0.0337
     25 C          62.4309   82.9248   13.5772 C.2     1  UNL1        0.2318
     26 C          61.9674   81.6973   14.3041 C.2     1  UNL1        0.0498
     27 C          62.0403   80.3569   13.6348 C.2     1  UNL1       -0.0002
     28 C          62.5768   80.2439   12.2386 C.2     1  UNL1       -0.0172
     29 C          63.0403   81.4714   11.5117 C.3     1  UNL1        0.1037
     30 C          62.9674   82.8118   12.1810 C.2     1  UNL1        0.2175
     31 N          63.3476   84.1870   11.7179 N.2     1  UNL1       -0.0375
@<TRIPOS>BOND
     1     2     3   ar
     2     3     4   ar
     3     4     5   ar
     4     5     6   ar
     5     6     7   ar
     6     6     8    1
     7     8     9    1
     8     9    10    1
     9    10    11    1
    10    11     1    1
    11     1    12    1
    12    12    13    1
    13    13    14    1
    14    14    15    1
    15    15    16    1
    16    16    17    1
    17    17    18    1
    18    18    19    1
    19    19    20    1
    20     1    22    1
    21    22    23    1
    22    23    24    2
    23    24    25    1
    24    25    26    2
    25    26    27    1
    26    27    28    2
    27    28    29    1
    28    29    30    1
    29    30    31    2
    30     7     2   ar
    31    20    15    1
    32    31    23    1
    33    11     5    1
    34    30    25    1
    35    18    21    1
