@<TRIPOS>MOLECULE
*****
 32 35 0 0 0
SMALL
GASTEIGER

@<TRIPOS>ATOM
      1 C          65.2196   92.0654   12.3968 C.ar    1  UNL1       -0.0004
      2 C          64.7886   91.2526   13.5814 C.ar    1  UNL1       -0.0024
      3 C          63.6224   90.3165   13.4644 C.ar    1  UNL1       -0.0002
      4 C          62.8872   90.1933   12.1627 C.ar    1  UNL1        0.0030
      5 C          61.7210   89.2572   12.0457 C.ar    1  UNL1        0.0369
      6 C          60.9858   89.1340   10.7440 C.ar    1  UNL1        0.1391
      7 C          61.4169   89.9469    9.5594 C.ar    1  UNL1        0.0369
      8 C          62.5831   90.8830    9.6764 C.ar    1  UNL1        0.0031
      9 C          63.3182   91.0062   10.9781 C.ar    1  UNL1       -0.0001
     10 C          64.4844   91.9422   11.0951 C.ar    1  UNL1       -0.0024
     11 C          66.3858   93.0016   12.5138 C.3     1  UNL1        0.1240
     12 N          67.2631   92.9585   13.7298 N.ar    1  UNL1       -0.3045
     13 C          67.1620   93.8627   14.9224 C.ar    1  UNL1        0.0983
     14 C          68.2319   93.4666   15.8963 C.ar    1  UNL1        0.1193
     15 N          68.9942   92.3177   15.3057 N.ar    1  UNL1       -0.2223
     16 C          68.3954   92.0037   13.9667 C.ar    1  UNL1        0.1788
     17 C          66.0977   95.3642   11.4720 C.3     1  UNL1        0.0197
     18 C          66.6748   93.9807   11.4149 C.3     1  UNL1        0.0827
     19 N          67.5408   93.5766   10.2587 N.3     1  UNL1       -0.2696
     20 C          67.8149   94.5499    9.1507 C.3     1  UNL1        0.0897
     21 C          68.1327   92.1992   10.2106 C.3     1  UNL1        0.0897
     22 O          59.8197   88.1979   10.6270 O.3     1  UNL1       -0.4706
     23 C          59.8595   87.0699    9.6390 C.3     1  UNL1        0.2320
     24 C          61.0703   86.1884    9.5555 C.ar    1  UNL1        0.0212
     25 C          61.7416   85.9596    8.2338 C.ar    1  UNL1       -0.0007
     26 C          62.9524   85.0781    8.1502 C.ar    1  UNL1       -0.0002
     27 C          63.4919   84.4255    9.3884 C.ar    1  UNL1        0.0011
     28 C          62.8205   84.6544   10.7101 C.ar    1  UNL1        0.0138
     29 C          61.6097   85.5358   10.7936 C.ar    1  UNL1        0.0004
     30 C          63.3599   84.0018   11.9483 C.2     1  UNL1        0.0729
     31 O          64.4865   83.0167   11.8469 O.co2   1  UNL1       -0.5446
     32 O          62.7727   84.3343   13.2880 O.co2   1  UNL1       -0.5446
@<TRIPOS>UNITY_ATOM_ATTR
31 1
charge -1
@<TRIPOS>BOND
     1    17    18    1
     2    18    11    1
     3    11     1    1
     4     1     2   ar
     5     2     3   ar
     6     3     4   ar
     7     4     5   ar
     8     5     6   ar
     9     6    22    1
    10    22    23    1
    11    23    24    1
    12    24    25   ar
    13    25    26   ar
    14    26    27   ar
    15    27    28   ar
    16    28    30    1
    17    30    31   ar
    18    30    32   ar
    19    28    29   ar
    20     6     7   ar
    21     7     8   ar
    22     8     9   ar
    23     9    10   ar
    24    11    12    1
    25    12    13   ar
    26    13    14   ar
    27    14    15   ar
    28    15    16   ar
    29    18    19    1
    30    19    20    1
    31    19    21    1
    32    10     1   ar
    33    16    12   ar
    34     9     4   ar
    35    29    24   ar
@<TRIPOS>MOLECULE
*****
 32 35 0 0 0
SMALL
GASTEIGER

@<TRIPOS>ATOM
      1 C          62.3943   88.1041   10.7499 C.ar    1  UNL1       -0.0004
      2 C          62.3899   89.4433   10.0742 C.ar    1  UNL1       -0.0024
      3 C          62.9890   90.6331   10.7636 C.ar    1  UNL1       -0.0002
      4 C          63.5925   90.4838   12.1287 C.ar    1  UNL1        0.0030
      5 C          64.1916   91.6738   12.8181 C.ar    1  UNL1        0.0369
      6 C          64.7950   91.5245   14.1832 C.ar    1  UNL1        0.1391
      7 C          64.7994   90.1852   14.8589 C.ar    1  UNL1        0.0369
      8 C          64.2003   88.9954   14.1695 C.ar    1  UNL1        0.0031
      9 C          63.5968   89.1447   12.8044 C.ar    1  UNL1       -0.0001
     10 C          62.9978   87.9548   12.1150 C.ar    1  UNL1       -0.0024
     11 C          61.7952   86.9142   10.0605 C.3     1  UNL1        0.1240
     12 N          60.7126   87.1051    9.0399 N.ar    1  UNL1       -0.3045
     13 C          60.0967   88.4137    8.6421 C.ar    1  UNL1        0.0983
     14 C          59.0593   88.1383    7.5943 C.ar    1  UNL1        0.1193
     15 N          59.0341   86.6595    7.3444 N.ar    1  UNL1       -0.2223
     16 C          60.0558   86.0209    8.2379 C.ar    1  UNL1        0.1788
     17 C          61.9357   84.9159   11.7150 C.3     1  UNL1        0.0197
     18 C          62.2787   85.5334   10.3916 C.3     1  UNL1        0.0827
     19 N          63.1052   84.7701    9.3996 N.3     1  UNL1       -0.2696
     20 C          63.8560   83.5459    9.8330 C.3     1  UNL1        0.0897
     21 C          63.1810   85.2310    7.9741 C.3     1  UNL1        0.0897
     22 O          65.3941   92.7143   14.8726 O.3     1  UNL1       -0.4706
     23 C          66.5896   93.4006   14.2811 C.3     1  UNL1        0.2320
     24 C          66.7581   93.4628   12.7920 C.ar    1  UNL1        0.0212
     25 C          67.4203   92.3306   12.0642 C.ar    1  UNL1       -0.0007
     26 C          67.5888   92.3928   10.5750 C.ar    1  UNL1       -0.0002
     27 C          67.0952   93.5872    9.8135 C.ar    1  UNL1        0.0011
     28 C          66.4331   94.7194   10.5414 C.ar    1  UNL1        0.0138
     29 C          66.2645   94.6572   12.0305 C.ar    1  UNL1        0.0004
     30 C          65.9395   95.9138    9.7799 C.2     1  UNL1        0.0729
     31 O          66.4320   96.1711    8.3867 O.co2   1  UNL1       -0.5446
     32 O          64.9533   96.8510   10.4118 O.co2   1  UNL1       -0.5446
@<TRIPOS>UNITY_ATOM_ATTR
31 1
charge -1
@<TRIPOS>BOND
     1    17    18    1
     2    18    11    1
     3    11     1    1
     4     1     2   ar
     5     2     3   ar
     6     3     4   ar
     7     4     5   ar
     8     5     6   ar
     9     6    22    1
    10    22    23    1
    11    23    24    1
    12    24    25   ar
    13    25    26   ar
    14    26    27   ar
    15    27    28   ar
    16    28    30    1
    17    30    31   ar
    18    30    32   ar
    19    28    29   ar
    20     6     7   ar
    21     7     8   ar
    22     8     9   ar
    23     9    10   ar
    24    11    12    1
    25    12    13   ar
    26    13    14   ar
    27    14    15   ar
    28    15    16   ar
    29    18    19    1
    30    19    20    1
    31    19    21    1
    32    10     1   ar
    33    16    12   ar
    34     9     4   ar
    35    29    24   ar
@<TRIPOS>MOLECULE
*****
 32 35 0 0 0
SMALL
GASTEIGER

@<TRIPOS>ATOM
      1 C          62.9978   84.4430   12.0189 C.ar    1  UNL1       -0.0004
      2 C          63.5008   83.9325   10.7012 C.ar    1  UNL1       -0.0024
      3 C          63.0108   84.5455    9.4229 C.ar    1  UNL1       -0.0002
      4 C          62.0178   85.6690    9.4623 C.ar    1  UNL1        0.0030
      5 C          61.5278   86.2821    8.1839 C.ar    1  UNL1        0.0369
      6 C          60.5348   87.4056    8.2233 C.ar    1  UNL1        0.1391
      7 C          60.0318   87.9162    9.5411 C.ar    1  UNL1        0.0369
      8 C          60.5218   87.3031   10.8194 C.ar    1  UNL1        0.0031
      9 C          61.5148   86.1796   10.7800 C.ar    1  UNL1       -0.0001
     10 C          62.0048   85.5666   12.0583 C.ar    1  UNL1       -0.0024
     11 C          63.4878   83.8300   13.2972 C.3     1  UNL1        0.1240
     12 N          63.2066   82.3865   13.5929 N.ar    1  UNL1       -0.3045
     13 C          61.8494   81.7584   13.7087 C.ar    1  UNL1        0.0983
     14 C          62.0372   80.3015   14.0120 C.ar    1  UNL1        0.1193
     15 N          63.5105   80.0291   14.0837 N.ar    1  UNL1       -0.2223
     16 C          64.2332   81.3177   13.8246 C.ar    1  UNL1        0.1788
     17 C          65.7552   84.7266   14.1947 C.3     1  UNL1        0.0197
     18 C          64.2590   84.6604   14.2799 C.3     1  UNL1        0.0827
     19 N          63.5341   85.4246   15.3478 N.3     1  UNL1       -0.2696
     20 C          62.3874   84.7897   16.0773 C.3     1  UNL1        0.0897
     21 C          63.9558   86.8237   15.6863 C.3     1  UNL1        0.0897
     22 O          60.0447   88.0186    6.9451 O.3     1  UNL1       -0.4706
     23 C          59.0376   89.1297    6.9838 C.3     1  UNL1        0.2320
     24 C          59.0565   90.1962    5.9293 C.ar    1  UNL1        0.0212
     25 C          57.7903   90.9130    5.5649 C.ar    1  UNL1       -0.0007
     26 C          57.8092   91.9796    4.5103 C.ar    1  UNL1       -0.0002
     27 C          59.0943   92.3293    3.8201 C.ar    1  UNL1        0.0011
     28 C          60.3605   91.6124    4.1846 C.ar    1  UNL1        0.0138
     29 C          60.3416   90.5459    5.2392 C.ar    1  UNL1        0.0004
     30 C          61.6456   91.9621    3.4945 C.2     1  UNL1        0.0729
     31 O          61.6682   93.0416    2.4534 O.co2   1  UNL1       -0.5446
     32 O          62.9082   91.2322    3.8456 O.co2   1  UNL1       -0.5446
@<TRIPOS>UNITY_ATOM_ATTR
31 1
charge -1
@<TRIPOS>BOND
     1    17    18    1
     2    18    11    1
     3    11     1    1
     4     1     2   ar
     5     2     3   ar
     6     3     4   ar
     7     4     5   ar
     8     5     6   ar
     9     6    22    1
    10    22    23    1
    11    23    24    1
    12    24    25   ar
    13    25    26   ar
    14    26    27   ar
    15    27    28   ar
    16    28    30    1
    17    30    31   ar
    18    30    32   ar
    19    28    29   ar
    20     6     7   ar
    21     7     8   ar
    22     8     9   ar
    23     9    10   ar
    24    11    12    1
    25    12    13   ar
    26    13    14   ar
    27    14    15   ar
    28    15    16   ar
    29    18    19    1
    30    19    20    1
    31    19    21    1
    32    10     1   ar
    33    16    12   ar
    34     9     4   ar
    35    29    24   ar
@<TRIPOS>MOLECULE
*****
 32 35 0 0 0
SMALL
GASTEIGER

@<TRIPOS>ATOM
      1 C          63.0828   85.3421   12.8107 C.ar    1  UNL1       -0.0004
      2 C          62.4494   86.0298   11.6378 C.ar    1  UNL1       -0.0024
      3 C          62.5581   87.5188   11.4930 C.ar    1  UNL1       -0.0002
      4 C          63.3002   88.3201   12.5212 C.ar    1  UNL1        0.0030
      5 C          63.4088   89.8092   12.3764 C.ar    1  UNL1        0.0369
      6 C          64.1508   90.6106   13.4046 C.ar    1  UNL1        0.1391
      7 C          64.7843   89.9228   14.5776 C.ar    1  UNL1        0.0369
      8 C          64.6756   88.4338   14.7224 C.ar    1  UNL1        0.0031
      9 C          63.9335   87.6325   13.6942 C.ar    1  UNL1       -0.0001
     10 C          63.8249   86.1435   13.8389 C.ar    1  UNL1       -0.0024
     11 C          62.9742   83.8530   12.9555 C.3     1  UNL1        0.1240
     12 N          63.3851   82.9576   11.8245 N.ar    1  UNL1       -0.3045
     13 C          62.6579   81.7293   11.3635 C.ar    1  UNL1        0.0983
     14 C          63.4187   81.1457   10.2099 C.ar    1  UNL1        0.1193
     15 N          64.6160   82.0134    9.9579 N.ar    1  UNL1       -0.2223
     16 C          64.5952   83.1332   10.9558 C.ar    1  UNL1        0.1788
     17 C          62.0676   84.1539   15.3717 C.3     1  UNL1        0.0197
     18 C          62.4547   83.2595   14.2314 C.3     1  UNL1        0.0827
     19 N          62.3223   81.7715   14.3670 N.3     1  UNL1       -0.2696
     20 C          60.9696   81.1284   14.2850 C.3     1  UNL1        0.0897
     21 C          63.5425   80.9267   14.5846 C.3     1  UNL1        0.0897
     22 O          64.2595   92.0996   13.2598 O.3     1  UNL1       -0.4706
     23 C          65.6081   92.7563   13.2554 C.3     1  UNL1        0.2320
     24 C          66.2679   93.1057   11.9544 C.ar    1  UNL1        0.0212
     25 C          67.1856   92.1221   11.2909 C.ar    1  UNL1       -0.0007
     26 C          67.8454   92.4716    9.9899 C.ar    1  UNL1       -0.0002
     27 C          67.5874   93.8046    9.3524 C.ar    1  UNL1        0.0011
     28 C          66.6697   94.7883   10.0160 C.ar    1  UNL1        0.0138
     29 C          66.0099   94.4388   11.3169 C.ar    1  UNL1        0.0004
     30 C          66.4117   96.1213    9.3785 C.2     1  UNL1        0.0729
     31 O          67.5256   96.8502    8.6872 O.co2   1  UNL1       -0.5446
     32 O          65.0398   96.7255    9.4324 O.co2   1  UNL1       -0.5446
@<TRIPOS>UNITY_ATOM_ATTR
31 1
charge -1
@<TRIPOS>BOND
     1    17    18    1
     2    18    11    1
     3    11     1    1
     4     1     2   ar
     5     2     3   ar
     6     3     4   ar
     7     4     5   ar
     8     5     6   ar
     9     6    22    1
    10    22    23    1
    11    23    24    1
    12    24    25   ar
    13    25    26   ar
    14    26    27   ar
    15    27    28   ar
    16    28    30    1
    17    30    31   ar
    18    30    32   ar
    19    28    29   ar
    20     6     7   ar
    21     7     8   ar
    22     8     9   ar
    23     9    10   ar
    24    11    12    1
    25    12    13   ar
    26    13    14   ar
    27    14    15   ar
    28    15    16   ar
    29    18    19    1
    30    19    20    1
    31    19    21    1
    32    10     1   ar
    33    16    12   ar
    34     9     4   ar
    35    29    24   ar
@<TRIPOS>MOLECULE
*****
 32 35 0 0 0
SMALL
GASTEIGER

@<TRIPOS>ATOM
      1 C          61.2909   93.1124    2.1879 C.ar    1  UNL1       -0.0004
      2 C          62.3864   92.2717    2.7735 C.ar    1  UNL1       -0.0024
      3 C          62.0867   91.3276    3.8999 C.ar    1  UNL1       -0.0002
      4 C          60.6914   91.2243    4.4407 C.ar    1  UNL1        0.0030
      5 C          60.3916   90.2801    5.5671 C.ar    1  UNL1        0.0369
      6 C          58.9964   90.1767    6.1079 C.ar    1  UNL1        0.1391
      7 C          57.9008   91.0175    5.5223 C.ar    1  UNL1        0.0369
      8 C          58.2005   91.9616    4.3959 C.ar    1  UNL1        0.0031
      9 C          59.5958   92.0650    3.8551 C.ar    1  UNL1       -0.0001
     10 C          59.8956   93.0091    2.7287 C.ar    1  UNL1       -0.0024
     11 C          61.5906   94.0566    1.0614 C.3     1  UNL1        0.1240
     12 N          62.9748   94.6100    0.8949 N.ar    1  UNL1       -0.3045
     13 C          63.5429   95.7962    1.6162 C.ar    1  UNL1        0.0983
     14 C          64.9531   95.9937    1.1449 C.ar    1  UNL1        0.1193
     15 N          65.2567   94.9295    0.1323 N.ar    1  UNL1       -0.2223
     16 C          64.0341   94.0744   -0.0222 C.ar    1  UNL1        0.1788
     17 C          59.7251   95.7082    0.3254 C.3     1  UNL1        0.0197
     18 C          60.5062   94.4473    0.1016 C.3     1  UNL1        0.0827
     19 N          60.2028   93.5772   -1.0819 N.3     1  UNL1       -0.2696
     20 C          61.0507   93.6674   -2.3161 C.3     1  UNL1        0.0897
     21 C          59.0517   92.6169   -1.0314 C.3     1  UNL1        0.0897
     22 O          58.6966   89.2326    7.2343 O.3     1  UNL1       -0.4706
     23 C          59.4537   87.9432    7.3538 C.3     1  UNL1        0.2320
     24 C          60.3270   87.6942    8.5477 C.ar    1  UNL1        0.0212
     25 C          60.6879   86.2902    8.9331 C.ar    1  UNL1       -0.0007
     26 C          61.5612   86.0411   10.1270 C.ar    1  UNL1       -0.0002
     27 C          62.0734   87.1960   10.9356 C.ar    1  UNL1        0.0011
     28 C          61.7124   88.6000   10.5502 C.ar    1  UNL1        0.0138
     29 C          60.8392   88.8491    9.3563 C.ar    1  UNL1        0.0004
     30 C          62.2247   89.7549   11.3587 C.2     1  UNL1        0.0729
     31 O          62.7788   90.9662   10.6689 O.co2   1  UNL1       -0.5446
     32 O          62.1829   89.6986   12.8571 O.co2   1  UNL1       -0.5446
@<TRIPOS>UNITY_ATOM_ATTR
31 1
charge -1
@<TRIPOS>BOND
     1    17    18    1
     2    18    11    1
     3    11     1    1
     4     1     2   ar
     5     2     3   ar
     6     3     4   ar
     7     4     5   ar
     8     5     6   ar
     9     6    22    1
    10    22    23    1
    11    23    24    1
    12    24    25   ar
    13    25    26   ar
    14    26    27   ar
    15    27    28   ar
    16    28    30    1
    17    30    31   ar
    18    30    32   ar
    19    28    29   ar
    20     6     7   ar
    21     7     8   ar
    22     8     9   ar
    23     9    10   ar
    24    11    12    1
    25    12    13   ar
    26    13    14   ar
    27    14    15   ar
    28    15    16   ar
    29    18    19    1
    30    19    20    1
    31    19    21    1
    32    10     1   ar
    33    16    12   ar
    34     9     4   ar
    35    29    24   ar
@<TRIPOS>MOLECULE
*****
 32 35 0 0 0
SMALL
GASTEIGER

@<TRIPOS>ATOM
      1 C          61.5306   93.1250    2.1837 C.ar    1  UNL1       -0.0004
      2 C          62.5684   92.1982    2.7439 C.ar    1  UNL1       -0.0024
      3 C          62.2065   91.2431    3.8424 C.ar    1  UNL1       -0.0002
      4 C          60.8068   91.2150    4.3809 C.ar    1  UNL1        0.0030
      5 C          60.4449   90.2599    5.4795 C.ar    1  UNL1        0.0369
      6 C          59.0452   90.2317    6.0180 C.ar    1  UNL1        0.1391
      7 C          58.0073   91.1586    5.4578 C.ar    1  UNL1        0.0369
      8 C          58.3692   92.1136    4.3592 C.ar    1  UNL1        0.0031
      9 C          59.7689   92.1418    3.8207 C.ar    1  UNL1       -0.0001
     10 C          60.1309   93.0968    2.7222 C.ar    1  UNL1       -0.0024
     11 C          61.8925   94.0801    1.0851 C.3     1  UNL1        0.1240
     12 N          61.3601   93.8656   -0.3007 N.ar    1  UNL1       -0.3045
     13 C          61.9885   94.3542   -1.5721 C.ar    1  UNL1        0.0983
     14 C          61.1227   93.9154   -2.7157 C.ar    1  UNL1        0.1193
     15 N          59.9590   93.1556   -2.1511 N.ar    1  UNL1       -0.2223
     16 C          60.1058   93.1249   -0.6586 C.ar    1  UNL1        0.1788
     17 C          62.2032   96.6251    1.5053 C.3     1  UNL1        0.0197
     18 C          62.7867   95.2496    1.3723 C.3     1  UNL1        0.0827
     19 N          64.2645   95.0438    1.5266 N.3     1  UNL1       -0.2696
     20 C          65.0121   95.7594    2.6125 C.3     1  UNL1        0.0897
     21 C          64.9946   94.1223    0.5951 C.3     1  UNL1        0.0897
     22 O          58.6832   89.2767    7.1165 O.3     1  UNL1       -0.4706
     23 C          59.4305   87.9843    7.2633 C.3     1  UNL1        0.2320
     24 C          60.2505   87.7276    8.4928 C.ar    1  UNL1        0.0212
     25 C          60.5504   86.3194    8.9137 C.ar    1  UNL1       -0.0007
     26 C          61.3704   86.0626   10.1432 C.ar    1  UNL1       -0.0002
     27 C          61.8906   87.2140   10.9518 C.ar    1  UNL1        0.0011
     28 C          61.5906   88.6222   10.5308 C.ar    1  UNL1        0.0138
     29 C          60.7706   88.8790    9.3013 C.ar    1  UNL1        0.0004
     30 C          62.1108   89.7736   11.3394 C.2     1  UNL1        0.0729
     31 O          62.1608   89.6775   12.8354 O.co2   1  UNL1       -0.5446
     32 O          62.5809   91.0211   10.6518 O.co2   1  UNL1       -0.5446
@<TRIPOS>UNITY_ATOM_ATTR
31 1
charge -1
@<TRIPOS>BOND
     1    17    18    1
     2    18    11    1
     3    11     1    1
     4     1     2   ar
     5     2     3   ar
     6     3     4   ar
     7     4     5   ar
     8     5     6   ar
     9     6    22    1
    10    22    23    1
    11    23    24    1
    12    24    25   ar
    13    25    26   ar
    14    26    27   ar
    15    27    28   ar
    16    28    30    1
    17    30    31   ar
    18    30    32   ar
    19    28    29   ar
    20     6     7   ar
    21     7     8   ar
    22     8     9   ar
    23     9    10   ar
    24    11    12    1
    25    12    13   ar
    26    13    14   ar
    27    14    15   ar
    28    15    16   ar
    29    18    19    1
    30    19    20    1
    31    19    21    1
    32    10     1   ar
    33    16    12   ar
    34     9     4   ar
    35    29    24   ar
