@<TRIPOS>MOLECULE
*****
 48 52 0 0 0
SMALL
GASTEIGER

@<TRIPOS>ATOM
      1 N          63.5381   88.5911   13.0065 N.3     1  UNL1       -0.2660
      2 C          63.2961   89.9773   13.5260 C.3     1  UNL1        0.0926
      3 C          64.4426   90.9328   13.6760 C.3     1  UNL1        0.0950
      4 N          65.0308   91.5945   12.4651 N.am    1  UNL1       -0.2706
      5 C          64.1695   91.8708   11.2686 C.2     1  UNL1        0.4020
      6 O          62.7199   91.4855   11.2830 O.2     1  UNL1       -0.2264
      7 H          65.9823   91.8473   12.4557 H       1  UNL1        0.1527
      8 O          64.7577   92.5325   10.0578 O.3     1  UNL1       -0.4274
      9 C          66.1728   93.0291   10.0875 C.3     1  UNL1        0.2621
     10 C          66.4509   94.5030   10.0744 C.ar    1  UNL1        0.1323
     11 N          65.9504   95.5036   11.0735 N.ar    1  UNL1       -0.2374
     12 C          66.4685   96.8541   10.6765 C.ar    1  UNL1        0.1062
     13 C          67.2892   96.6882    9.4319 C.ar    1  UNL1        0.0573
     14 S          67.2784   95.2351    9.0597 S.2     1  UNL1       -0.0666
     15 C          65.0010   91.2266   15.0369 C.3     1  UNL1        0.0474
     16 C          66.3697   91.8249   15.1728 C.ar    1  UNL1       -0.0205
     17 C          66.6695   92.7622   16.3050 C.ar    1  UNL1       -0.0042
     18 C          68.0383   93.3605   16.4409 C.ar    1  UNL1       -0.0003
     19 C          69.1073   93.0216   15.4447 C.ar    1  UNL1       -0.0000
     20 C          68.8075   92.0844   14.3126 C.ar    1  UNL1       -0.0003
     21 C          67.4387   91.4860   14.1766 C.ar    1  UNL1       -0.0042
     22 C          64.2906   87.5979   13.8415 C.3     1  UNL1        0.1008
     23 C          63.7588   87.1908   15.1837 C.ar    1  UNL1        0.0130
     24 C          63.4075   88.2366   16.1999 C.ar    1  UNL1        0.0002
     25 C          62.8758   87.8296   17.5421 C.ar    1  UNL1        0.0204
     26 C          62.6954   86.3766   17.8681 C.ar    1  UNL1        0.0989
     27 N          63.0467   85.3307   16.8519 N.ar    1  UNL1       -0.2426
     28 C          63.5784   85.7378   15.5097 C.ar    1  UNL1        0.0959
     29 C          63.0275   88.1981   11.6519 C.3     1  UNL1        0.0926
     30 C          62.1770   86.9722   11.4976 C.3     1  UNL1        0.0950
     31 O          62.8514   85.3813    9.0453 O.2     1  UNL1       -0.2264
     32 C          63.1293   84.8153   10.4063 C.2     1  UNL1        0.4020
     33 N          62.7921   85.6108   11.6325 N.am    1  UNL1       -0.2706
     34 H          62.9744   85.2393   12.5258 H       1  UNL1        0.1527
     35 O          63.7444   83.4538   10.5412 O.3     1  UNL1       -0.4291
     36 C          64.1606   82.9493   11.8910 C.3     1  UNL1        0.2447
     37 C          63.1982   82.1565   12.7249 C.ar    1  UNL1        0.0714
     38 C          62.3986   82.6767   13.8826 C.ar    1  UNL1        0.1053
     39 N          61.5726   81.5461   14.4206 N.ar    1  UNL1       -0.2350
     40 C          61.8616   80.3272   13.5955 C.ar    1  UNL1        0.1343
     41 S          62.8663   80.7045   12.5474 S.2     1  UNL1       -0.0652
     42 C          60.7114   87.1078   11.2085 C.3     1  UNL1        0.0474
     43 C          60.2535   87.5865    9.8627 C.ar    1  UNL1       -0.0205
     44 C          60.3833   89.0357    9.4981 C.ar    1  UNL1       -0.0042
     45 C          59.9255   89.5144    8.1523 C.ar    1  UNL1       -0.0003
     46 C          59.3379   88.5440    7.1711 C.ar    1  UNL1       -0.0000
     47 C          59.2081   87.0948    7.5356 C.ar    1  UNL1       -0.0003
     48 C          59.6659   86.6160    8.8815 C.ar    1  UNL1       -0.0042
@<TRIPOS>BOND
     1    31    32    2
     2    32    33   am
     3    33    30    1
     4    30    42    1
     5    42    43    1
     6    43    44   ar
     7    44    45   ar
     8    45    46   ar
     9    46    47   ar
    10    47    48   ar
    11    30    29    1
    12    29     1    1
    13     1    22    1
    14    22    23    1
    15    23    24   ar
    16    24    25   ar
    17    25    26   ar
    18    26    27   ar
    19    27    28   ar
    20     1     2    1
    21     3     2    1
    22     3    15    1
    23    15    16    1
    24    16    17   ar
    25    17    18   ar
    26    18    19   ar
    27    19    20   ar
    28    20    21   ar
    29     3     4    1
    30     4     5   am
    31     5     6    2
    32     5     8    1
    33     8     9    1
    34     9    10    1
    35    10    11   ar
    36    11    12   ar
    37    12    13   ar
    38    13    14   ar
    39    32    35    1
    40    35    36    1
    41    36    37    1
    42    37    38   ar
    43    38    39   ar
    44    39    40   ar
    45    40    41   ar
    46    48    43   ar
    47    28    23   ar
    48    21    16   ar
    49    14    10   ar
    50    41    37   ar
    51    33    34    1
    52     4     7    1
@<TRIPOS>MOLECULE
*****
 48 52 0 0 0
SMALL
GASTEIGER

@<TRIPOS>ATOM
      1 N          64.1628   91.3744   11.8017 N.3     1  UNL1       -0.2660
      2 C          63.6589   91.7069   13.1749 C.3     1  UNL1        0.0926
      3 C          64.3542   91.1535   14.3833 C.3     1  UNL1        0.0950
      4 N          64.3028   89.6820   14.6699 N.am    1  UNL1       -0.2706
      5 C          63.5068   89.1721   15.8346 C.2     1  UNL1        0.4020
      6 O          62.7622   90.1337   16.7125 O.2     1  UNL1       -0.2264
      7 H          64.7915   89.0509   14.0937 H       1  UNL1        0.1527
      8 O          63.4554   87.7007   16.1212 O.3     1  UNL1       -0.4274
      9 C          64.2929   86.7503   15.3178 C.3     1  UNL1        0.2621
     10 C          63.8900   85.3102   15.2011 C.ar    1  UNL1        0.1323
     11 N          62.5554   84.7351   15.5727 N.ar    1  UNL1       -0.2374
     12 C          62.5916   83.2617   15.2935 C.ar    1  UNL1        0.1062
     13 C          63.9486   82.9262   14.7494 C.ar    1  UNL1        0.0573
     14 S          64.7511   84.1922   14.6922 S.2     1  UNL1       -0.0666
     15 C          65.1009   92.0715   15.3051 C.3     1  UNL1        0.0474
     16 C          66.5772   92.2715   15.1305 C.ar    1  UNL1       -0.0205
     17 C          67.2935   91.6126   13.9891 C.ar    1  UNL1       -0.0042
     18 C          68.7698   91.8126   13.8145 C.ar    1  UNL1       -0.0003
     19 C          69.5298   92.6716   14.7813 C.ar    1  UNL1       -0.0000
     20 C          68.8135   93.3305   15.9226 C.ar    1  UNL1       -0.0003
     21 C          67.3372   93.1305   16.0973 C.ar    1  UNL1       -0.0042
     22 C          65.6304   91.4526   11.5020 C.3     1  UNL1        0.1008
     23 C          66.1897   92.6549   10.8008 C.ar    1  UNL1        0.0130
     24 C          67.4786   92.5479   10.0410 C.ar    1  UNL1        0.0002
     25 C          68.0379   93.7502    9.3398 C.ar    1  UNL1        0.0204
     26 C          67.3083   95.0594    9.3984 C.ar    1  UNL1        0.0989
     27 N          66.0194   95.1664   10.1581 N.ar    1  UNL1       -0.2426
     28 C          65.4601   93.9642   10.8593 C.ar    1  UNL1        0.0959
     29 C          63.1990   90.9637   10.7283 C.3     1  UNL1        0.0926
     30 C          62.0774   90.0204   11.0482 C.3     1  UNL1        0.0950
     31 O          62.7356   87.3661    9.8148 O.2     1  UNL1       -0.2264
     32 C          62.6559   87.5008   11.3066 C.2     1  UNL1        0.4020
     33 N          62.3268   88.8279   11.9233 N.am    1  UNL1       -0.2706
     34 H          62.2745   88.9163   12.9024 H       1  UNL1        0.1527
     35 O          62.9054   86.3083   12.1817 O.3     1  UNL1       -0.4291
     36 C          62.1834   85.0202   11.9178 C.3     1  UNL1        0.2447
     37 C          62.9295   83.8419   11.3657 C.ar    1  UNL1        0.0714
     38 C          64.1000   83.8993   10.4294 C.ar    1  UNL1        0.1053
     39 N          64.5300   82.4921   10.1380 N.ar    1  UNL1       -0.2350
     40 C          63.6252   81.5649   10.8941 C.ar    1  UNL1        0.1343
     41 S          62.6360   82.3991   11.6529 S.2     1  UNL1       -0.0652
     42 C          60.7064   90.2697   10.4930 C.3     1  UNL1        0.0474
     43 C          60.1335   89.3405    9.4642 C.ar    1  UNL1       -0.0205
     44 C          59.7087   87.9566    9.8572 C.ar    1  UNL1       -0.0042
     45 C          59.1357   87.0274    8.8285 C.ar    1  UNL1       -0.0003
     46 C          58.9877   87.4820    7.4067 C.ar    1  UNL1       -0.0000
     47 C          59.4125   88.8658    7.0138 C.ar    1  UNL1       -0.0003
     48 C          59.9854   89.7951    8.0425 C.ar    1  UNL1       -0.0042
@<TRIPOS>BOND
     1    31    32    2
     2    32    33   am
     3    33    30    1
     4    30    42    1
     5    42    43    1
     6    43    44   ar
     7    44    45   ar
     8    45    46   ar
     9    46    47   ar
    10    47    48   ar
    11    30    29    1
    12    29     1    1
    13     1    22    1
    14    22    23    1
    15    23    24   ar
    16    24    25   ar
    17    25    26   ar
    18    26    27   ar
    19    27    28   ar
    20     1     2    1
    21     3     2    1
    22     3    15    1
    23    15    16    1
    24    16    17   ar
    25    17    18   ar
    26    18    19   ar
    27    19    20   ar
    28    20    21   ar
    29     3     4    1
    30     4     5   am
    31     5     6    2
    32     5     8    1
    33     8     9    1
    34     9    10    1
    35    10    11   ar
    36    11    12   ar
    37    12    13   ar
    38    13    14   ar
    39    32    35    1
    40    35    36    1
    41    36    37    1
    42    37    38   ar
    43    38    39   ar
    44    39    40   ar
    45    40    41   ar
    46    48    43   ar
    47    28    23   ar
    48    21    16   ar
    49    14    10   ar
    50    41    37   ar
    51    33    34    1
    52     4     7    1
@<TRIPOS>MOLECULE
*****
 48 52 0 0 0
SMALL
GASTEIGER

@<TRIPOS>ATOM
      1 N          64.0806   91.3013   11.7056 N.3     1  UNL1       -0.2660
      2 C          63.3985   91.2346   13.0398 C.3     1  UNL1        0.0926
      3 C          64.1764   90.8432   14.2611 C.3     1  UNL1        0.0950
      4 N          64.3672   89.3936   14.5961 N.am    1  UNL1       -0.2706
      5 C          63.4717   88.7318   15.6011 C.2     1  UNL1        0.4020
      6 O          62.3852   89.5196   16.2710 O.2     1  UNL1       -0.2264
      7 H          65.0803   88.8765   14.1564 H       1  UNL1        0.1527
      8 O          63.6625   87.2822   15.9361 O.3     1  UNL1       -0.4274
      9 C          64.3654   86.3754   14.9699 C.3     1  UNL1        0.2621
     10 C          63.8494   84.9870   14.7332 C.ar    1  UNL1        0.1323
     11 N          62.4585   84.5028   15.0178 N.ar    1  UNL1       -0.2374
     12 C          62.3832   83.0556   14.6309 C.ar    1  UNL1        0.1062
     13 C          63.7275   82.6452   14.1071 C.ar    1  UNL1        0.0573
     14 S          64.6338   83.8388   14.1704 S.2     1  UNL1       -0.0666
     15 C          64.7634   91.9014   15.1475 C.3     1  UNL1        0.0474
     16 C          66.2418   92.1544   15.1355 C.ar    1  UNL1       -0.0205
     17 C          67.0980   91.5474   14.0638 C.ar    1  UNL1       -0.0042
     18 C          68.5764   91.8003   14.0518 C.ar    1  UNL1       -0.0003
     19 C          69.1988   92.6603   15.1116 C.ar    1  UNL1       -0.0000
     20 C          68.3427   93.2673   16.1833 C.ar    1  UNL1       -0.0003
     21 C          66.8642   93.0143   16.1953 C.ar    1  UNL1       -0.0042
     22 C          65.5616   91.5269   11.6309 C.3     1  UNL1        0.1008
     23 C          66.1041   92.7014   10.8718 C.ar    1  UNL1        0.0130
     24 C          67.3257   92.5421   10.0161 C.ar    1  UNL1        0.0002
     25 C          67.8682   93.7166    9.2570 C.ar    1  UNL1        0.0204
     26 C          67.1890   95.0504    9.3536 C.ar    1  UNL1        0.0989
     27 N          65.9673   95.2098   10.2093 N.ar    1  UNL1       -0.2426
     28 C          65.4249   94.0353   10.9684 C.ar    1  UNL1        0.0959
     29 C          63.2817   91.1425   10.4460 C.3     1  UNL1        0.0926
     30 C          62.4067   89.9384   10.2597 C.3     1  UNL1        0.0950
     31 O          59.5577   89.0900   10.6640 O.2     1  UNL1       -0.2264
     32 C          60.0483   89.4399    9.2903 C.2     1  UNL1        0.4020
     33 N          61.4728   89.8641    9.0882 N.am    1  UNL1       -0.2706
     34 H          61.7948   90.0938    8.1866 H       1  UNL1        0.1527
     35 O          59.1144   89.3656    8.1188 O.3     1  UNL1       -0.4291
     36 C          59.6613   89.3708    6.7221 C.3     1  UNL1        0.2447
     37 C          59.2687   90.4586    5.7670 C.ar    1  UNL1        0.0714
     38 C          57.8744   90.9531    5.5188 C.ar    1  UNL1        0.1053
     39 N          57.9453   92.0431    4.4907 N.ar    1  UNL1       -0.2350
     40 C          59.3834   92.2223    4.1035 C.ar    1  UNL1        0.1343
     41 S          60.2013   91.2430    4.8923 S.2     1  UNL1       -0.0652
     42 C          62.4656   88.8088   11.2447 C.3     1  UNL1        0.0474
     43 C          62.5350   87.3918   10.7576 C.ar    1  UNL1       -0.0205
     44 C          62.6417   87.1081    9.2885 C.ar    1  UNL1       -0.0042
     45 C          62.7110   85.6911    8.8014 C.ar    1  UNL1       -0.0003
     46 C          62.6738   84.5578    9.7833 C.ar    1  UNL1       -0.0000
     47 C          62.5671   84.8415   11.2524 C.ar    1  UNL1       -0.0003
     48 C          62.4978   86.2585   11.7395 C.ar    1  UNL1       -0.0042
@<TRIPOS>BOND
     1    31    32    2
     2    32    33   am
     3    33    30    1
     4    30    42    1
     5    42    43    1
     6    43    44   ar
     7    44    45   ar
     8    45    46   ar
     9    46    47   ar
    10    47    48   ar
    11    30    29    1
    12    29     1    1
    13     1    22    1
    14    22    23    1
    15    23    24   ar
    16    24    25   ar
    17    25    26   ar
    18    26    27   ar
    19    27    28   ar
    20     1     2    1
    21     3     2    1
    22     3    15    1
    23    15    16    1
    24    16    17   ar
    25    17    18   ar
    26    18    19   ar
    27    19    20   ar
    28    20    21   ar
    29     3     4    1
    30     4     5   am
    31     5     6    2
    32     5     8    1
    33     8     9    1
    34     9    10    1
    35    10    11   ar
    36    11    12   ar
    37    12    13   ar
    38    13    14   ar
    39    32    35    1
    40    35    36    1
    41    36    37    1
    42    37    38   ar
    43    38    39   ar
    44    39    40   ar
    45    40    41   ar
    46    48    43   ar
    47    28    23   ar
    48    21    16   ar
    49    14    10   ar
    50    41    37   ar
    51    33    34    1
    52     4     7    1
@<TRIPOS>MOLECULE
*****
 48 52 0 0 0
SMALL
GASTEIGER

@<TRIPOS>ATOM
      1 N          63.3058   89.0925   12.2601 N.3     1  UNL1       -0.2660
      2 C          63.8527   88.0986   13.2414 C.3     1  UNL1        0.0926
      3 C          64.1211   88.5129   14.6578 C.3     1  UNL1        0.0950
      4 N          64.5853   89.9077   14.9561 N.am    1  UNL1       -0.2706
      5 C          63.8456   90.7466   15.9557 C.2     1  UNL1        0.4020
      6 O          62.6419   90.1907   16.6570 O.2     1  UNL1       -0.2264
      7 H          65.3754   90.2726   14.4959 H       1  UNL1        0.1527
      8 O          64.3098   92.1415   16.2540 O.3     1  UNL1       -0.4274
      9 C          65.6621   92.3680   16.8622 C.3     1  UNL1        0.2621
     10 C          66.8819   92.3947   15.9897 C.ar    1  UNL1        0.1323
     11 N          67.2955   91.3281   15.0194 N.ar    1  UNL1       -0.2374
     12 C          68.5716   91.7669   14.3644 C.ar    1  UNL1        0.1062
     13 C          68.9467   93.1047   14.9298 C.ar    1  UNL1        0.0573
     14 S          67.9025   93.4927   15.9343 S.2     1  UNL1       -0.0666
     15 C          63.9254   87.5324   15.7760 C.3     1  UNL1        0.0474
     16 C          63.9206   86.0599   15.4901 C.ar    1  UNL1       -0.0205
     17 C          65.0838   85.4293   14.7833 C.ar    1  UNL1       -0.0042
     18 C          65.0790   83.9569   14.4974 C.ar    1  UNL1       -0.0003
     19 C          63.9110   83.1149   14.9182 C.ar    1  UNL1       -0.0000
     20 C          62.7479   83.7454   15.6249 C.ar    1  UNL1       -0.0003
     21 C          62.7527   85.2180   15.9109 C.ar    1  UNL1       -0.0042
     22 C          63.1724   90.5350   12.6490 C.3     1  UNL1        0.1008
     23 C          64.1098   91.5562   12.0757 C.ar    1  UNL1        0.0130
     24 C          64.1003   91.8396   10.6027 C.ar    1  UNL1        0.0002
     25 C          65.0376   92.8607   10.0294 C.ar    1  UNL1        0.0204
     26 C          65.9844   93.5984   10.9290 C.ar    1  UNL1        0.0989
     27 N          65.9939   93.3149   12.4019 N.ar    1  UNL1       -0.2426
     28 C          65.0566   92.2938   12.9753 C.ar    1  UNL1        0.0959
     29 C          62.8922   88.6439   10.8898 C.3     1  UNL1        0.0926
     30 C          61.5392   88.0321   10.6775 C.3     1  UNL1        0.0950
     31 O          60.7025   87.1808    7.9251 O.2     1  UNL1       -0.2264
     32 C          60.0581   88.3719    8.5701 C.2     1  UNL1        0.4020
     33 N          60.4764   88.7975    9.9463 N.am    1  UNL1       -0.2706
     34 H          60.0534   89.5793   10.3696 H       1  UNL1        0.1527
     35 O          58.9952   89.1373    7.8389 O.3     1  UNL1       -0.4291
     36 C          58.9530   89.1162    6.3397 C.3     1  UNL1        0.2447
     37 C          58.9282   90.4045    5.5719 C.ar    1  UNL1        0.0714
     38 C          57.7061   91.2059    5.2335 C.ar    1  UNL1        0.1053
     39 N          58.1437   92.4144    4.4602 N.ar    1  UNL1       -0.2350
     40 C          59.6363   92.3600    4.3206 C.ar    1  UNL1        0.1343
     41 S          60.1211   91.1178    5.0077 S.2     1  UNL1       -0.0652
     42 C          61.2490   86.6550   11.1963 C.3     1  UNL1        0.0474
     43 C          62.1385   85.5080   10.8178 C.ar    1  UNL1       -0.0205
     44 C          62.6992   85.4202    9.4294 C.ar    1  UNL1       -0.0042
     45 C          63.5888   84.2732    9.0509 C.ar    1  UNL1       -0.0003
     46 C          63.9176   83.2141   10.0609 C.ar    1  UNL1       -0.0000
     47 C          63.3569   83.3020   11.4494 C.ar    1  UNL1       -0.0003
     48 C          62.4674   84.4489   11.8278 C.ar    1  UNL1       -0.0042
@<TRIPOS>BOND
     1    31    32    2
     2    32    33   am
     3    33    30    1
     4    30    42    1
     5    42    43    1
     6    43    44   ar
     7    44    45   ar
     8    45    46   ar
     9    46    47   ar
    10    47    48   ar
    11    30    29    1
    12    29     1    1
    13     1    22    1
    14    22    23    1
    15    23    24   ar
    16    24    25   ar
    17    25    26   ar
    18    26    27   ar
    19    27    28   ar
    20     1     2    1
    21     3     2    1
    22     3    15    1
    23    15    16    1
    24    16    17   ar
    25    17    18   ar
    26    18    19   ar
    27    19    20   ar
    28    20    21   ar
    29     3     4    1
    30     4     5   am
    31     5     6    2
    32     5     8    1
    33     8     9    1
    34     9    10    1
    35    10    11   ar
    36    11    12   ar
    37    12    13   ar
    38    13    14   ar
    39    32    35    1
    40    35    36    1
    41    36    37    1
    42    37    38   ar
    43    38    39   ar
    44    39    40   ar
    45    40    41   ar
    46    48    43   ar
    47    28    23   ar
    48    21    16   ar
    49    14    10   ar
    50    41    37   ar
    51    33    34    1
    52     4     7    1
@<TRIPOS>MOLECULE
*****
 48 52 0 0 0
SMALL
GASTEIGER

@<TRIPOS>ATOM
      1 N          62.4089   89.9825   10.3901 N.3     1  UNL1       -0.2660
      2 C          63.2655   88.8245   10.8089 C.3     1  UNL1        0.0926
      3 C          63.0108   88.1381   12.1181 C.3     1  UNL1        0.0950
      4 N          63.5906   88.6974   13.3834 N.am    1  UNL1       -0.2706
      5 C          62.7781   89.6292   14.2329 C.2     1  UNL1        0.4020
      6 O          61.3859   90.0017   13.8171 O.2     1  UNL1       -0.2264
      7 H          64.5043   88.4529   13.6564 H       1  UNL1        0.1527
      8 O          63.3579   90.1884   15.4983 O.3     1  UNL1       -0.4274
      9 C          63.0908   89.5105   16.8094 C.3     1  UNL1        0.2621
     10 C          63.1088   88.0132   16.8969 C.ar    1  UNL1        0.1323
     11 N          63.7805   87.0816   15.9320 N.ar    1  UNL1       -0.2374
     12 C          63.5450   85.6772   16.4034 C.ar    1  UNL1        0.1062
     13 C          62.7277   85.7407   17.6596 C.ar    1  UNL1        0.0573
     14 S          62.4581   87.1845   17.9646 S.2     1  UNL1       -0.0666
     15 C          62.1763   86.8924   12.1619 C.3     1  UNL1        0.0474
     16 C          62.8385   85.5473   12.2075 C.ar    1  UNL1       -0.0205
     17 C          62.4084   84.4671   11.2597 C.ar    1  UNL1       -0.0042
     18 C          63.0706   83.1220   11.3053 C.ar    1  UNL1       -0.0003
     19 C          64.1630   82.8570   12.2985 C.ar    1  UNL1       -0.0000
     20 C          64.5931   83.9371   13.2462 C.ar    1  UNL1       -0.0003
     21 C          63.9309   85.2823   13.2007 C.ar    1  UNL1       -0.0042
     22 C          63.0312   91.3244   10.1414 C.3     1  UNL1        0.1008
     23 C          64.1784   91.7880   10.9895 C.ar    1  UNL1        0.0130
     24 C          65.4536   92.2418   10.3430 C.ar    1  UNL1        0.0002
     25 C          66.6007   92.7053   11.1910 C.ar    1  UNL1        0.0204
     26 C          66.4726   92.7151   12.6855 C.ar    1  UNL1        0.0989
     27 N          65.1974   92.2613   13.3319 N.ar    1  UNL1       -0.2426
     28 C          64.0503   91.7978   12.4839 C.ar    1  UNL1        0.0959
     29 C          60.9300   89.7985   10.2199 C.3     1  UNL1        0.0926
     30 C          60.4009   89.0124    9.0572 C.3     1  UNL1        0.0950
     31 O          58.1087   88.1424    7.3283 O.2     1  UNL1       -0.2264
     32 C          59.0061   89.2571    6.8789 C.2     1  UNL1        0.4020
     33 N          60.1522   89.6922    7.7433 N.am    1  UNL1       -0.2706
     34 H          60.7412   90.4238    7.4483 H       1  UNL1        0.1527
     35 O          58.7574   89.9369    5.5650 O.3     1  UNL1       -0.4291
     36 C          59.0572   91.3982    5.4080 C.3     1  UNL1        0.2447
     37 C          60.0199   91.8572    4.3533 C.ar    1  UNL1        0.0714
     38 C          61.4609   91.4559    4.2399 C.ar    1  UNL1        0.1053
     39 N          62.0423   92.1487    3.0433 N.ar    1  UNL1       -0.2350
     40 C          60.9607   92.9782    2.4170 C.ar    1  UNL1        0.1343
     41 S          59.7108   92.7980    3.2267 S.2     1  UNL1       -0.0652
     42 C          60.1205   87.5467    9.2082 C.3     1  UNL1        0.0474
     43 C          60.9314   86.5449    8.4407 C.ar    1  UNL1       -0.0205
     44 C          60.2792   85.7036    7.3840 C.ar    1  UNL1       -0.0042
     45 C          61.0901   84.7018    6.6165 C.ar    1  UNL1       -0.0003
     46 C          62.5532   84.5415    6.9059 C.ar    1  UNL1       -0.0000
     47 C          63.2053   85.3828    7.9626 C.ar    1  UNL1       -0.0003
     48 C          62.3944   86.3845    8.7301 C.ar    1  UNL1       -0.0042
@<TRIPOS>BOND
     1    31    32    2
     2    32    33   am
     3    33    30    1
     4    30    42    1
     5    42    43    1
     6    43    44   ar
     7    44    45   ar
     8    45    46   ar
     9    46    47   ar
    10    47    48   ar
    11    30    29    1
    12    29     1    1
    13     1    22    1
    14    22    23    1
    15    23    24   ar
    16    24    25   ar
    17    25    26   ar
    18    26    27   ar
    19    27    28   ar
    20     1     2    1
    21     3     2    1
    22     3    15    1
    23    15    16    1
    24    16    17   ar
    25    17    18   ar
    26    18    19   ar
    27    19    20   ar
    28    20    21   ar
    29     3     4    1
    30     4     5   am
    31     5     6    2
    32     5     8    1
    33     8     9    1
    34     9    10    1
    35    10    11   ar
    36    11    12   ar
    37    12    13   ar
    38    13    14   ar
    39    32    35    1
    40    35    36    1
    41    36    37    1
    42    37    38   ar
    43    38    39   ar
    44    39    40   ar
    45    40    41   ar
    46    48    43   ar
    47    28    23   ar
    48    21    16   ar
    49    14    10   ar
    50    41    37   ar
    51    33    34    1
    52     4     7    1
@<TRIPOS>MOLECULE
*****
 48 52 0 0 0
SMALL
GASTEIGER

@<TRIPOS>ATOM
      1 N          62.8868   89.3878   13.4881 N.3     1  UNL1       -0.2660
      2 C          61.7890   90.1965   12.8629 C.3     1  UNL1        0.0926
      3 C          61.8171   90.4886   11.3919 C.3     1  UNL1        0.0950
      4 N          63.1290   90.6802   10.6903 N.am    1  UNL1       -0.2706
      5 C          64.1324   91.6560   11.2295 C.2     1  UNL1        0.4020
      6 O          63.8240   92.4403   12.4704 O.2     1  UNL1       -0.2264
      7 H          63.3314   90.1654    9.8758 H       1  UNL1        0.1527
      8 O          65.4443   91.8476   10.5279 O.3     1  UNL1       -0.4274
      9 C          66.4780   92.7668   11.1081 C.3     1  UNL1        0.2621
     10 C          66.7621   94.0853   10.4519 C.ar    1  UNL1        0.1323
     11 N          66.4427   95.4380   11.0162 N.ar    1  UNL1       -0.2374
     12 C          66.8988   96.4714   10.0293 C.ar    1  UNL1        0.1062
     13 C          67.5001   95.7575    8.8551 C.ar    1  UNL1        0.0573
     14 S          67.4157   94.2828    9.1162 S.2     1  UNL1       -0.0666
     15 C          60.5334   90.5891   10.6225 C.3     1  UNL1        0.0474
     16 C          60.1173   89.4746    9.7089 C.ar    1  UNL1       -0.0205
     17 C          60.0422   89.7066    8.2287 C.ar    1  UNL1       -0.0042
     18 C          59.6262   88.5921    7.3151 C.ar    1  UNL1       -0.0003
     19 C          59.2852   87.2456    7.8815 C.ar    1  UNL1       -0.0000
     20 C          59.3603   87.0137    9.3615 C.ar    1  UNL1       -0.0003
     21 C          59.7764   88.1282   10.2752 C.ar    1  UNL1       -0.0042
     22 C          63.2442   89.5965   14.9298 C.3     1  UNL1        0.1008
     23 C          64.2593   90.6341   15.3083 C.ar    1  UNL1        0.0130
     24 C          65.5544   90.7253   14.5572 C.ar    1  UNL1        0.0002
     25 C          66.5695   91.7628   14.9356 C.ar    1  UNL1        0.0204
     26 C          66.2893   92.7091   16.0651 C.ar    1  UNL1        0.0989
     27 N          64.9941   92.6180   16.8163 N.ar    1  UNL1       -0.2426
     28 C          63.9791   91.5805   16.4378 C.ar    1  UNL1        0.0959
     29 C          63.6271   88.3704   12.6716 C.3     1  UNL1        0.0926
     30 C          63.2823   86.9157   12.7938 C.3     1  UNL1        0.0950
     31 O          61.7416   84.9509   14.4569 O.2     1  UNL1       -0.2264
     32 C          63.2269   85.0746   14.6260 C.2     1  UNL1        0.4020
     33 N          63.9972   86.0569   13.7945 N.am    1  UNL1       -0.2706
     34 H          64.9721   86.1380   13.9055 H       1  UNL1        0.1527
     35 O          63.9418   84.2158   15.6268 O.3     1  UNL1       -0.4291
     36 C          64.3293   82.8115   15.2691 C.3     1  UNL1        0.2447
     37 C          63.4961   82.0276   14.2990 C.ar    1  UNL1        0.0714
     38 C          62.0547   81.6523   14.4770 C.ar    1  UNL1        0.1053
     39 N          61.6257   80.8741   13.2686 N.ar    1  UNL1       -0.2350
     40 C          62.8019   80.7684   12.3436 C.ar    1  UNL1        0.1343
     41 S          63.9579   81.4814   12.9805 S.2     1  UNL1       -0.0652
     42 C          62.2226   86.3198   11.9152 C.3     1  UNL1        0.0474
     43 C          62.6107   85.5648   10.6786 C.ar    1  UNL1       -0.0205
     44 C          63.1722   84.1785   10.7914 C.ar    1  UNL1       -0.0042
     45 C          63.5604   83.4235    9.5548 C.ar    1  UNL1       -0.0003
     46 C          63.3871   84.0549    8.2052 C.ar    1  UNL1       -0.0000
     47 C          62.8256   85.4412    8.0924 C.ar    1  UNL1       -0.0003
     48 C          62.4374   86.1962    9.3290 C.ar    1  UNL1       -0.0042
@<TRIPOS>BOND
     1    31    32    2
     2    32    33   am
     3    33    30    1
     4    30    42    1
     5    42    43    1
     6    43    44   ar
     7    44    45   ar
     8    45    46   ar
     9    46    47   ar
    10    47    48   ar
    11    30    29    1
    12    29     1    1
    13     1    22    1
    14    22    23    1
    15    23    24   ar
    16    24    25   ar
    17    25    26   ar
    18    26    27   ar
    19    27    28   ar
    20     1     2    1
    21     3     2    1
    22     3    15    1
    23    15    16    1
    24    16    17   ar
    25    17    18   ar
    26    18    19   ar
    27    19    20   ar
    28    20    21   ar
    29     3     4    1
    30     4     5   am
    31     5     6    2
    32     5     8    1
    33     8     9    1
    34     9    10    1
    35    10    11   ar
    36    11    12   ar
    37    12    13   ar
    38    13    14   ar
    39    32    35    1
    40    35    36    1
    41    36    37    1
    42    37    38   ar
    43    38    39   ar
    44    39    40   ar
    45    40    41   ar
    46    48    43   ar
    47    28    23   ar
    48    21    16   ar
    49    14    10   ar
    50    41    37   ar
    51    33    34    1
    52     4     7    1
@<TRIPOS>MOLECULE
*****
 48 52 0 0 0
SMALL
GASTEIGER

@<TRIPOS>ATOM
      1 N          63.2740   88.7834   12.5937 N.3     1  UNL1       -0.2660
      2 C          62.3870   89.9106   12.1547 C.3     1  UNL1        0.0926
      3 C          62.4347   90.3935   10.7354 C.3     1  UNL1        0.0950
      4 N          61.6474   89.6829    9.6745 N.am    1  UNL1       -0.2706
      5 C          60.1703   89.9143    9.5553 C.2     1  UNL1        0.4020
      6 O          59.4803   90.8563   10.4968 O.2     1  UNL1       -0.2264
      7 H          62.1003   89.0647    9.0566 H       1  UNL1        0.1527
      8 O          59.3830   89.2038    8.4944 O.3     1  UNL1       -0.4274
      9 C          59.8373   89.2503    7.0657 C.3     1  UNL1        0.2621
     10 C          59.2377   90.2485    6.1201 C.ar    1  UNL1        0.1323
     11 N          57.7740   90.5213    5.9376 N.ar    1  UNL1       -0.2374
     12 C          57.6282   91.5905    4.8957 C.ar    1  UNL1        0.1062
     13 C          59.0017   91.9785    4.4343 C.ar    1  UNL1        0.0573
     14 S          59.9965   91.1491    5.1910 S.2     1  UNL1       -0.0666
     15 C          63.2697   91.5870   10.3768 C.3     1  UNL1        0.0474
     16 C          64.4757   91.9328   11.1989 C.ar    1  UNL1       -0.0205
     17 C          64.4111   91.8539   12.6954 C.ar    1  UNL1       -0.0042
     18 C          65.6171   92.1997   13.5175 C.ar    1  UNL1       -0.0003
     19 C          66.8879   92.6245   12.8430 C.ar    1  UNL1       -0.0000
     20 C          66.9525   92.7034   11.3465 C.ar    1  UNL1       -0.0003
     21 C          65.7464   92.3575   10.5244 C.ar    1  UNL1       -0.0042
     22 C          64.1278   88.9339   13.8177 C.3     1  UNL1        0.1008
     23 C          63.8052   88.1539   15.0577 C.ar    1  UNL1        0.0130
     24 C          63.0804   88.8153   16.1924 C.ar    1  UNL1        0.0002
     25 C          62.7578   88.0354   17.4324 C.ar    1  UNL1        0.0204
     26 C          63.1599   86.5942   17.5377 C.ar    1  UNL1        0.0989
     27 N          63.8846   85.9328   16.4031 N.ar    1  UNL1       -0.2426
     28 C          64.2073   86.7127   15.1631 C.ar    1  UNL1        0.0959
     29 C          63.3071   87.5057   11.8086 C.3     1  UNL1        0.0926
     30 C          62.1388   86.5662   11.8553 C.3     1  UNL1        0.0950
     31 O          64.1759   84.3908   12.1991 O.2     1  UNL1       -0.2264
     32 C          63.0265   84.5001   13.1566 C.2     1  UNL1        0.4020
     33 N          62.0079   85.5877   12.9848 N.am    1  UNL1       -0.2706
     34 H          61.2536   85.6594   13.6133 H       1  UNL1        0.1527
     35 O          62.8956   83.5216   14.2861 O.3     1  UNL1       -0.4291
     36 C          62.0599   82.2877   14.1164 C.3     1  UNL1        0.2447
     37 C          62.3809   81.3085   13.0264 C.ar    1  UNL1        0.0714
     38 C          62.3803   79.8140   13.1553 C.ar    1  UNL1        0.1053
     39 N          62.7579   79.2338   11.8246 N.ar    1  UNL1       -0.2350
     40 C          62.9919   80.3696   10.8732 C.ar    1  UNL1        0.1343
     41 S          62.7589   81.6519   11.6159 S.2     1  UNL1       -0.0652
     42 C          61.1013   86.6050   10.7727 C.3     1  UNL1        0.0474
     43 C          61.4025   86.0215    9.4241 C.ar    1  UNL1       -0.0205
     44 C          60.3475   86.0133    8.3579 C.ar    1  UNL1       -0.0042
     45 C          60.6486   85.4298    7.0092 C.ar    1  UNL1       -0.0003
     46 C          62.0048   84.8546    6.7268 C.ar    1  UNL1       -0.0000
     47 C          63.0598   84.8628    7.7929 C.ar    1  UNL1       -0.0003
     48 C          62.7587   85.4463    9.1416 C.ar    1  UNL1       -0.0042
@<TRIPOS>BOND
     1    31    32    2
     2    32    33   am
     3    33    30    1
     4    30    42    1
     5    42    43    1
     6    43    44   ar
     7    44    45   ar
     8    45    46   ar
     9    46    47   ar
    10    47    48   ar
    11    30    29    1
    12    29     1    1
    13     1    22    1
    14    22    23    1
    15    23    24   ar
    16    24    25   ar
    17    25    26   ar
    18    26    27   ar
    19    27    28   ar
    20     1     2    1
    21     3     2    1
    22     3    15    1
    23    15    16    1
    24    16    17   ar
    25    17    18   ar
    26    18    19   ar
    27    19    20   ar
    28    20    21   ar
    29     3     4    1
    30     4     5   am
    31     5     6    2
    32     5     8    1
    33     8     9    1
    34     9    10    1
    35    10    11   ar
    36    11    12   ar
    37    12    13   ar
    38    13    14   ar
    39    32    35    1
    40    35    36    1
    41    36    37    1
    42    37    38   ar
    43    38    39   ar
    44    39    40   ar
    45    40    41   ar
    46    48    43   ar
    47    28    23   ar
    48    21    16   ar
    49    14    10   ar
    50    41    37   ar
    51    33    34    1
    52     4     7    1
@<TRIPOS>MOLECULE
*****
 48 52 0 0 0
SMALL
GASTEIGER

@<TRIPOS>ATOM
      1 N          63.6187   88.0723   13.3285 N.3     1  UNL1       -0.2660
      2 C          63.1778   89.4872   13.5602 C.3     1  UNL1        0.0926
      3 C          63.8925   90.6165   12.8792 C.3     1  UNL1        0.0950
      4 N          65.1340   91.1955   13.4903 N.am    1  UNL1       -0.2706
      5 C          65.0940   91.7566   14.8808 C.2     1  UNL1        0.4020
      6 O          63.8125   91.7386   15.6602 O.2     1  UNL1       -0.2264
      7 H          65.9750   91.2073   12.9787 H       1  UNL1        0.1527
      8 O          66.3355   92.3357   15.4919 O.3     1  UNL1       -0.4274
      9 C          67.1709   93.3086   14.7138 C.3     1  UNL1        0.2621
     10 C          67.0272   93.3963   13.2233 C.ar    1  UNL1        0.1323
     11 N          67.5322   92.3938   12.2284 N.ar    1  UNL1       -0.2374
     12 C          67.1704   92.8797   10.8562 C.ar    1  UNL1        0.1062
     13 C          66.4417   94.1826   11.0031 C.ar    1  UNL1        0.0573
     14 S          66.3531   94.5019   12.4660 S.2     1  UNL1       -0.0666
     15 C          63.3657   91.1668   11.5870 C.3     1  UNL1        0.0474
     16 C          62.1271   90.5845   10.9733 C.ar    1  UNL1       -0.0205
     17 C          60.8275   90.6287   11.7212 C.ar    1  UNL1       -0.0042
     18 C          59.5889   90.0464   11.1075 C.ar    1  UNL1       -0.0003
     19 C          59.6497   89.4199    9.7459 C.ar    1  UNL1       -0.0000
     20 C          60.9492   89.3757    8.9981 C.ar    1  UNL1       -0.0003
     21 C          62.1880   89.9580    9.6118 C.ar    1  UNL1       -0.0042
     22 C          64.3976   87.3468   14.3853 C.3     1  UNL1        0.1008
     23 C          63.7849   87.1002   15.7322 C.ar    1  UNL1        0.0130
     24 C          63.4052   88.2582   16.6068 C.ar    1  UNL1        0.0002
     25 C          62.7926   88.0117   17.9535 C.ar    1  UNL1        0.0204
     26 C          62.5596   86.6072   18.4257 C.ar    1  UNL1        0.0989
     27 N          62.9393   85.4492   17.5511 N.ar    1  UNL1       -0.2426
     28 C          63.5519   85.6957   16.2044 C.ar    1  UNL1        0.0959
     29 C          63.2806   87.3829   12.0400 C.3     1  UNL1        0.0926
     30 C          62.2270   86.3155   12.0145 C.3     1  UNL1        0.0950
     31 O          64.3988   84.2498   11.8887 O.2     1  UNL1       -0.2264
     32 C          63.3484   84.1695   12.9565 C.2     1  UNL1        0.4020
     33 N          62.2625   85.2024   13.0194 N.am    1  UNL1       -0.2706
     34 H          61.5731   85.1497   13.7202 H       1  UNL1        0.1527
     35 O          63.3839   83.0564   13.9614 O.3     1  UNL1       -0.4291
     36 C          62.5315   81.8385   13.7619 C.3     1  UNL1        0.2447
     37 C          62.6831   81.0122   12.5192 C.ar    1  UNL1        0.0714
     38 C          63.0004   81.5318   11.1482 C.ar    1  UNL1        0.1053
     39 N          63.0575   80.3620   10.2110 N.ar    1  UNL1       -0.2350
     40 C          62.7754   79.1195   11.0026 C.ar    1  UNL1        0.1343
     41 S          62.5440   79.5214   12.4292 S.2     1  UNL1       -0.0652
     42 C          61.1379   86.3612   10.9841 C.3     1  UNL1        0.0474
     43 C          61.4109   85.9000    9.5831 C.ar    1  UNL1       -0.0205
     44 C          60.3484   86.0250    8.5318 C.ar    1  UNL1       -0.0042
     45 C          60.6215   85.5637    7.1309 C.ar    1  UNL1       -0.0003
     46 C          61.9571   84.9775    6.7812 C.ar    1  UNL1       -0.0000
     47 C          63.0197   84.8525    7.8325 C.ar    1  UNL1       -0.0003
     48 C          62.7466   85.3137    9.2335 C.ar    1  UNL1       -0.0042
@<TRIPOS>BOND
     1    31    32    2
     2    32    33   am
     3    33    30    1
     4    30    42    1
     5    42    43    1
     6    43    44   ar
     7    44    45   ar
     8    45    46   ar
     9    46    47   ar
    10    47    48   ar
    11    30    29    1
    12    29     1    1
    13     1    22    1
    14    22    23    1
    15    23    24   ar
    16    24    25   ar
    17    25    26   ar
    18    26    27   ar
    19    27    28   ar
    20     1     2    1
    21     3     2    1
    22     3    15    1
    23    15    16    1
    24    16    17   ar
    25    17    18   ar
    26    18    19   ar
    27    19    20   ar
    28    20    21   ar
    29     3     4    1
    30     4     5   am
    31     5     6    2
    32     5     8    1
    33     8     9    1
    34     9    10    1
    35    10    11   ar
    36    11    12   ar
    37    12    13   ar
    38    13    14   ar
    39    32    35    1
    40    35    36    1
    41    36    37    1
    42    37    38   ar
    43    38    39   ar
    44    39    40   ar
    45    40    41   ar
    46    48    43   ar
    47    28    23   ar
    48    21    16   ar
    49    14    10   ar
    50    41    37   ar
    51    33    34    1
    52     4     7    1
@<TRIPOS>MOLECULE
*****
 48 52 0 0 0
SMALL
GASTEIGER

@<TRIPOS>ATOM
      1 N          63.2736   86.9291   12.7876 N.3     1  UNL1       -0.2660
      2 C          63.4145   88.2374   12.0675 C.3     1  UNL1        0.0926
      3 C          62.6838   89.4494   12.5644 C.3     1  UNL1        0.0950
      4 N          63.4242   90.5158   13.3160 N.am    1  UNL1       -0.2706
      5 C          64.1908   91.5658   12.5678 C.2     1  UNL1        0.4020
      6 O          64.2169   91.5495   11.0682 O.2     1  UNL1       -0.2264
      7 H          63.4070   90.5264   14.3003 H       1  UNL1        0.1527
      8 O          64.9311   92.6321   13.3194 O.3     1  UNL1       -0.4274
      9 C          66.3554   92.9456   12.9684 C.3     1  UNL1        0.2621
     10 C          66.6774   93.6097   11.6626 C.ar    1  UNL1        0.1323
     11 N          67.5897   93.0709   10.6008 N.ar    1  UNL1       -0.2374
     12 C          67.6197   94.0574    9.4712 C.ar    1  UNL1        0.1062
     13 C          66.7260   95.2058    9.8348 C.ar    1  UNL1        0.0573
     14 S          66.1435   94.9292   11.1892 S.2     1  UNL1       -0.0666
     15 C          61.2127   89.5952   12.3099 C.3     1  UNL1        0.0474
     16 C          60.6454   89.2421   10.9670 C.ar    1  UNL1       -0.0205
     17 C          60.9942   90.0684    9.7646 C.ar    1  UNL1       -0.0042
     18 C          60.4268   89.7153    8.4217 C.ar    1  UNL1       -0.0003
     19 C          59.5106   88.5360    8.2812 C.ar    1  UNL1       -0.0000
     20 C          59.1617   87.7098    9.4835 C.ar    1  UNL1       -0.0003
     21 C          59.7291   88.0628   10.8264 C.ar    1  UNL1       -0.0042
     22 C          64.1631   86.6154   13.9540 C.3     1  UNL1        0.1008
     23 C          63.6550   86.7939   15.3540 C.ar    1  UNL1        0.0130
     24 C          63.5554   88.1685   15.9461 C.ar    1  UNL1        0.0002
     25 C          63.0474   88.3471   17.3461 C.ar    1  UNL1        0.0204
     26 C          62.6389   87.1511   18.1539 C.ar    1  UNL1        0.0989
     27 N          62.7384   85.7765   17.5618 N.ar    1  UNL1       -0.2426
     28 C          63.2464   85.5979   16.1618 C.ar    1  UNL1        0.0959
     29 C          62.2433   85.9344   12.3413 C.3     1  UNL1        0.0926
     30 C          62.3660   85.2792   10.9976 C.3     1  UNL1        0.0950
     31 O          64.8443   83.7024   10.3875 O.2     1  UNL1       -0.2264
     32 C          63.5342   82.9969   10.5774 C.2     1  UNL1        0.4020
     33 N          62.2951   83.7852   10.8825 N.am    1  UNL1       -0.2706
     34 H          61.4353   83.3221   11.0071 H       1  UNL1        0.1527
     35 O          63.4634   81.5029   10.4622 O.3     1  UNL1       -0.4291
     36 C          63.1049   80.6745   11.6602 C.3     1  UNL1        0.2447
     37 C          62.9737   81.3213   13.0072 C.ar    1  UNL1        0.0714
     38 C          64.0958   81.8858   13.8273 C.ar    1  UNL1        0.1053
     39 N          63.5130   82.4305   15.0976 N.ar    1  UNL1       -0.2350
     40 C          62.0308   82.2028   15.0627 C.ar    1  UNL1        0.1343
     41 S          61.6975   81.5173   13.7707 S.2     1  UNL1       -0.0652
     42 C          62.5596   86.1177    9.7691 C.3     1  UNL1        0.0474
     43 C          62.2167   85.5608    8.4192 C.ar    1  UNL1       -0.0205
     44 C          60.7914   85.5511    7.9519 C.ar    1  UNL1       -0.0042
     45 C          60.4485   84.9942    6.6020 C.ar    1  UNL1       -0.0003
     46 C          61.5308   84.4470    5.7194 C.ar    1  UNL1       -0.0000
     47 C          62.9561   84.4567    6.1867 C.ar    1  UNL1       -0.0003
     48 C          63.2990   85.0136    7.5366 C.ar    1  UNL1       -0.0042
@<TRIPOS>BOND
     1    31    32    2
     2    32    33   am
     3    33    30    1
     4    30    42    1
     5    42    43    1
     6    43    44   ar
     7    44    45   ar
     8    45    46   ar
     9    46    47   ar
    10    47    48   ar
    11    30    29    1
    12    29     1    1
    13     1    22    1
    14    22    23    1
    15    23    24   ar
    16    24    25   ar
    17    25    26   ar
    18    26    27   ar
    19    27    28   ar
    20     1     2    1
    21     3     2    1
    22     3    15    1
    23    15    16    1
    24    16    17   ar
    25    17    18   ar
    26    18    19   ar
    27    19    20   ar
    28    20    21   ar
    29     3     4    1
    30     4     5   am
    31     5     6    2
    32     5     8    1
    33     8     9    1
    34     9    10    1
    35    10    11   ar
    36    11    12   ar
    37    12    13   ar
    38    13    14   ar
    39    32    35    1
    40    35    36    1
    41    36    37    1
    42    37    38   ar
    43    38    39   ar
    44    39    40   ar
    45    40    41   ar
    46    48    43   ar
    47    28    23   ar
    48    21    16   ar
    49    14    10   ar
    50    41    37   ar
    51    33    34    1
    52     4     7    1
