@<TRIPOS>MOLECULE
*****
 31 34 0 0 0
SMALL
GASTEIGER

@<TRIPOS>ATOM
      1 C          63.7341   87.7856   16.0772 C.3     1  UNL1        0.2108
      2 C          64.4007   88.3461   14.8559 C.3     1  UNL1        0.1468
      3 N          64.3111   89.8419   14.9242 N.am    1  UNL1       -0.2213
      4 C          63.5892   90.2058   16.1877 C.2     1  UNL1        0.4088
      5 O          63.2785   91.5964   16.6563 O.2     1  UNL1       -0.2258
      6 O          63.2326   88.9350   16.9003 O.3     1  UNL1       -0.4345
      7 C          64.8491   90.8047   13.9074 C.ar    1  UNL1        0.0572
      8 C          64.0954   91.0494   12.6339 C.ar    1  UNL1        0.0163
      9 C          64.6333   92.0122   11.6173 C.ar    1  UNL1        0.0162
     10 C          65.9250   92.7303   11.8742 C.ar    1  UNL1        0.0541
     11 C          66.6787   92.4855   13.1477 C.ar    1  UNL1        0.0162
     12 C          66.1407   91.5227   14.1643 C.ar    1  UNL1        0.0163
     13 N          66.4629   93.6931   10.8574 N.am    1  UNL1       -0.2540
     14 C          66.0273   95.1283   10.8795 C.3     1  UNL1        0.1303
     15 C          66.5653   96.0911    9.8628 C.3     1  UNL1        0.1646
     16 O          67.5388   95.6187    8.8240 O.3     1  UNL1       -0.3426
     17 C          67.9745   94.1834    8.8020 C.3     1  UNL1        0.2275
     18 C          67.4365   93.2207    9.8187 C.2     1  UNL1        0.2596
     19 O          67.8721   91.7855    9.7967 O.2     1  UNL1       -0.2718
     20 C          63.5937   86.3311   16.4159 C.3     1  UNL1        0.1470
     21 O          65.1249   83.9370   13.6458 O.2     1  UNL1       -0.2645
     22 C          65.0255   84.9719   14.7270 C.2     1  UNL1        0.3094
     23 N          63.6930   85.2963   15.3346 N.am    1  UNL1       -0.2149
     24 C          62.4598   84.5857   14.8610 C.2     1  UNL1        0.2612
     25 O          61.1273   84.9101   15.4686 O.2     1  UNL1       -0.2689
     26 C          62.5591   83.5508   13.7798 C.ar    1  UNL1        0.0842
     27 C          62.6832   83.8209   12.3095 C.ar    1  UNL1        0.0125
     28 C          62.7526   82.5012   11.6000 C.ar    1  UNL1        0.0186
     29 C          62.6713   81.4154   12.6317 C.ar    1  UNL1        0.0871
     30 CL         62.7039   79.9400   12.3634 Cl      1  UNL1       -0.0752
     31 S          62.5518   82.0641   13.9789 S.2     1  UNL1       -0.0709
@<TRIPOS>BOND
     1    21    22    2
     2    22    23   am
     3    23    20    1
     4     1    20    1
     5     1     2    1
     6     2     3    1
     7     3     7    1
     8     7     8   ar
     9     8     9   ar
    10     9    10   ar
    11    10    13    1
    12    13    14    1
    13    14    15    1
    14    15    16    1
    15    16    17    1
    16    17    18    1
    17    18    19    2
    18    10    11   ar
    19    11    12   ar
    20     3     4   am
    21     4     5    2
    22     4     6    1
    23    23    24   am
    24    24    25    2
    25    24    26    1
    26    26    27   ar
    27    27    28   ar
    28    28    29   ar
    29    29    30    1
    30    29    31   ar
    31     6     1    1
    32    31    26   ar
    33    12     7   ar
    34    18    13   am
@<TRIPOS>MOLECULE
*****
 31 34 0 0 0
SMALL
GASTEIGER

@<TRIPOS>ATOM
      1 C          63.8599   87.6950   16.0842 C.3     1  UNL1        0.2108
      2 C          64.5774   88.2576   14.8931 C.3     1  UNL1        0.1468
      3 N          64.4052   89.7476   14.9094 N.am    1  UNL1       -0.2213
      4 C          63.5812   90.1059   16.1105 C.2     1  UNL1        0.4088
      5 O          63.1669   91.4898   16.5146 O.2     1  UNL1       -0.2258
      6 O          63.2441   88.8374   16.8366 O.3     1  UNL1       -0.4345
      7 C          64.9596   90.7103   13.9015 C.ar    1  UNL1        0.0572
      8 C          64.1703   91.0448   12.6706 C.ar    1  UNL1        0.0163
      9 C          64.7248   92.0075   11.6628 C.ar    1  UNL1        0.0162
     10 C          66.0685   92.6357   11.8858 C.ar    1  UNL1        0.0541
     11 C          66.8578   92.3013   13.1167 C.ar    1  UNL1        0.0162
     12 C          66.3033   91.3386   14.1245 C.ar    1  UNL1        0.0163
     13 N          66.6229   93.5985   10.8779 N.am    1  UNL1       -0.2540
     14 C          67.2509   93.0846    9.6164 C.3     1  UNL1        0.1303
     15 C          67.8054   94.0474    8.6084 C.3     1  UNL1        0.1646
     16 O          67.7317   95.5239    8.8622 O.3     1  UNL1       -0.3426
     17 C          67.1037   96.0378   10.1238 C.3     1  UNL1        0.2275
     18 C          66.5493   95.0750   11.1316 C.2     1  UNL1        0.2596
     19 O          65.9212   95.5888   12.3932 O.2     1  UNL1       -0.2718
     20 C          63.7732   86.2448   16.4573 C.3     1  UNL1        0.1470
     21 O          61.3878   83.8339   14.3965 O.2     1  UNL1       -0.2645
     22 C          61.8576   84.8408   15.4041 C.2     1  UNL1        0.3094
     23 N          63.3034   85.2378   15.4497 N.am    1  UNL1       -0.2149
     24 C          64.2794   84.6279   14.4877 C.2     1  UNL1        0.2612
     25 O          65.7252   85.0249   14.5334 O.2     1  UNL1       -0.2689
     26 C          63.8096   83.6210   13.4801 C.ar    1  UNL1        0.0842
     27 C          63.4484   83.9049   12.0522 C.ar    1  UNL1        0.0125
     28 C          63.0340   82.6127   11.4131 C.ar    1  UNL1        0.0186
     29 C          63.1391   81.5301   12.4459 C.ar    1  UNL1        0.0871
     30 CL         62.8207   80.0791   12.2379 Cl      1  UNL1       -0.0752
     31 S          63.6184   82.1532   13.7234 S.2     1  UNL1       -0.0709
@<TRIPOS>BOND
     1    21    22    2
     2    22    23   am
     3    23    20    1
     4     1    20    1
     5     1     2    1
     6     2     3    1
     7     3     7    1
     8     7     8   ar
     9     8     9   ar
    10     9    10   ar
    11    10    13    1
    12    13    14    1
    13    14    15    1
    14    15    16    1
    15    16    17    1
    16    17    18    1
    17    18    19    2
    18    10    11   ar
    19    11    12   ar
    20     3     4   am
    21     4     5    2
    22     4     6    1
    23    23    24   am
    24    24    25    2
    25    24    26    1
    26    26    27   ar
    27    27    28   ar
    28    28    29   ar
    29    29    30    1
    30    29    31   ar
    31     6     1    1
    32    31    26   ar
    33    12     7   ar
    34    18    13   am
@<TRIPOS>MOLECULE
*****
 31 34 0 0 0
SMALL
GASTEIGER

@<TRIPOS>ATOM
      1 C          64.6021   90.5543   14.8099 C.3     1  UNL1        0.2108
      2 C          64.6371   89.3470   13.9204 C.3     1  UNL1        0.1468
      3 N          63.9604   88.2197   14.6423 N.am    1  UNL1       -0.2213
      4 C          63.5071   88.7303   15.9779 C.2     1  UNL1        0.4088
      5 O          62.7841   87.9373   17.0260 O.2     1  UNL1       -0.2258
      6 O          63.9036   90.1732   16.0815 O.3     1  UNL1       -0.4345
      7 C          63.7703   86.8263   14.1203 C.ar    1  UNL1        0.0572
      8 C          63.0627   86.6038   12.8166 C.ar    1  UNL1        0.0163
      9 C          62.8726   85.2105   12.2946 C.ar    1  UNL1        0.0162
     10 C          63.3901   84.0396   13.0764 C.ar    1  UNL1        0.0541
     11 C          64.0977   84.2621   14.3802 C.ar    1  UNL1        0.0162
     12 C          64.2878   85.6554   14.9021 C.ar    1  UNL1        0.0163
     13 N          63.2000   82.6463   12.5544 N.am    1  UNL1       -0.2540
     14 C          63.5540   82.3230   11.1331 C.3     1  UNL1        0.1303
     15 C          63.3639   80.9296   10.6111 C.3     1  UNL1        0.1646
     16 O          62.8198   79.8596   11.5104 O.3     1  UNL1       -0.3426
     17 C          62.4657   80.1829   12.9318 C.3     1  UNL1        0.2275
     18 C          62.6559   81.5762   13.4538 C.2     1  UNL1        0.2596
     19 O          62.3018   81.8995   14.8751 O.2     1  UNL1       -0.2718
     20 C          65.1664   91.9056   14.4847 C.3     1  UNL1        0.1470
     21 O          64.8092   92.3632   10.5588 O.2     1  UNL1       -0.2645
     22 C          64.4852   92.0077   11.9796 C.2     1  UNL1        0.3094
     23 N          65.4903   92.2610   13.0639 N.am    1  UNL1       -0.2149
     24 C          66.8193   92.8698   12.7275 C.2     1  UNL1        0.2612
     25 O          67.8243   93.1231   13.8118 O.2     1  UNL1       -0.2689
     26 C          67.1432   93.2252   11.3067 C.ar    1  UNL1        0.0842
     27 C          67.8539   92.3486   10.3186 C.ar    1  UNL1        0.0125
     28 C          67.9633   93.1013    9.0257 C.ar    1  UNL1        0.0186
     29 C          67.3201   94.4432    9.2148 C.ar    1  UNL1        0.0871
     30 CL         67.2042   95.5195    8.1765 Cl      1  UNL1       -0.0752
     31 S          66.8133   94.5198   10.6245 S.2     1  UNL1       -0.0709
@<TRIPOS>BOND
     1    21    22    2
     2    22    23   am
     3    23    20    1
     4     1    20    1
     5     1     2    1
     6     2     3    1
     7     3     7    1
     8     7     8   ar
     9     8     9   ar
    10     9    10   ar
    11    10    13    1
    12    13    14    1
    13    14    15    1
    14    15    16    1
    15    16    17    1
    16    17    18    1
    17    18    19    2
    18    10    11   ar
    19    11    12   ar
    20     3     4   am
    21     4     5    2
    22     4     6    1
    23    23    24   am
    24    24    25    2
    25    24    26    1
    26    26    27   ar
    27    27    28   ar
    28    28    29   ar
    29    29    30    1
    30    29    31   ar
    31     6     1    1
    32    31    26   ar
    33    12     7   ar
    34    18    13   am
