@<TRIPOS>MOLECULE
*****
 35 37 0 0 0
SMALL
GASTEIGER

@<TRIPOS>ATOM
      1 C          61.5741   89.2168   11.8144 C.ar    1  UNL1        0.2445
      2 N          60.4888   89.9634   11.0969 N.ar    1  UNL1       -0.2078
      3 C          59.9210   89.4179    9.8202 C.ar    1  UNL1        0.1135
      4 C          60.4384   88.1258    9.2609 C.ar    1  UNL1        0.0783
      5 CL         59.8706   87.5803    7.9843 Cl      1  UNL1       -0.0806
      6 C          61.5237   87.3792    9.9784 C.ar    1  UNL1        0.0336
      7 C          62.0916   87.9247   11.2552 C.ar    1  UNL1        0.1190
      8 N          63.1768   87.1781   11.9726 N.pl3   1  UNL1       -0.2104
      9 H          64.0062   87.6420   12.2299 H       1  UNL1        0.1739
     10 S          62.9985   85.7247   12.2979 S.O2    1  UNL1        0.0737
     11 O          63.2442   86.0192   13.7481 O.2     1  UNL1       -0.1499
     12 O          62.7528   85.4302   10.8478 O.2     1  UNL1       -0.1499
     13 C          62.8202   84.2713   12.6233 C.ar    1  UNL1        0.1261
     14 C          62.4919   83.8514   14.0254 C.ar    1  UNL1        0.0211
     15 C          62.3136   82.3980   14.3507 C.ar    1  UNL1        0.0136
     16 C          62.4636   81.3645   13.2740 C.ar    1  UNL1        0.0683
     17 CL         62.2853   79.9111   13.5993 Cl      1  UNL1       -0.0814
     18 C          62.7919   81.7844   11.8718 C.ar    1  UNL1        0.0695
     19 CL         62.9419   80.7510   10.7951 Cl      1  UNL1       -0.0813
     20 C          62.9702   83.2378   11.5465 C.ar    1  UNL1        0.0324
     21 O          62.1419   89.7623   13.0911 O.3     1  UNL1       -0.4349
     22 C          64.1752   90.8067   14.3261 C.ar    1  UNL1        0.0879
     23 C          65.4303   91.6275   14.2983 C.ar    1  UNL1        0.0076
     24 C          65.9073   92.2250   13.0077 C.ar    1  UNL1        0.0003
     25 C          65.1292   92.0015   11.7450 C.ar    1  UNL1        0.0031
     26 C          63.8741   91.1806   11.7728 C.ar    1  UNL1        0.0377
     27 C          63.3971   90.5832   13.0633 C.ar    1  UNL1        0.1515
     28 O          63.4326   91.0929   16.7992 O.2     1  UNL1       -0.2700
     29 C          63.6982   90.2092   15.6166 C.2     1  UNL1        0.2489
     30 N          63.4868   88.7282   15.7246 N.am    1  UNL1       -0.2984
     31 H          63.6611   88.1482   14.9484 H       1  UNL1        0.1498
     32 C          63.0098   88.1307   17.0152 C.3     1  UNL1        0.1215
     33 C          62.8762   86.6426   17.1486 C.3     1  UNL1        0.1583
     34 O          61.5175   86.0072   17.1328 O.3     1  UNL1       -0.3802
     35 H          61.0211   86.2859   17.9182 H       1  UNL1        0.2105
@<TRIPOS>BOND
     1    28    29    2
     2    29    30   am
     3    30    32    1
     4    32    33    1
     5    33    34    1
     6    29    22    1
     7    22    23   ar
     8    23    24   ar
     9    24    25   ar
    10    25    26   ar
    11    26    27   ar
    12    27    21    1
    13    21     1    1
    14     1     2   ar
    15     2     3   ar
    16     3     4   ar
    17     4     5    1
    18     4     6   ar
    19     6     7   ar
    20     7     8    1
    21     8    10    1
    22    10    11    2
    23    10    12    2
    24    10    13    1
    25    13    14   ar
    26    14    15   ar
    27    15    16   ar
    28    16    17    1
    29    16    18   ar
    30    18    19    1
    31    18    20   ar
    32    27    22   ar
    33     7     1   ar
    34    20    13   ar
    35    30    31    1
    36    34    35    1
    37     8     9    1
@<TRIPOS>MOLECULE
*****
 35 37 0 0 0
SMALL
GASTEIGER

@<TRIPOS>ATOM
      1 C          60.9120   86.7681   10.4811 C.ar    1  UNL1        0.2445
      2 N          60.6409   86.0446    9.1954 N.ar    1  UNL1       -0.2078
      3 C          60.1184   86.7966    8.0074 C.ar    1  UNL1        0.1135
      4 C          59.8669   88.2722    8.1050 C.ar    1  UNL1        0.0783
      5 CL         59.3444   89.0242    6.9170 Cl      1  UNL1       -0.0806
      6 C          60.1380   88.9957    9.3907 C.ar    1  UNL1        0.0336
      7 C          60.6606   88.2437   10.5788 C.ar    1  UNL1        0.1190
      8 N          60.9317   88.9672   11.8644 N.pl3   1  UNL1       -0.2104
      9 H          60.3025   88.8856   12.6173 H       1  UNL1        0.1739
     10 S          62.1613   89.8150   12.0031 S.O2    1  UNL1        0.0737
     11 O          62.8567   88.6905   12.7116 O.2     1  UNL1       -0.1499
     12 O          61.4659   90.9394   11.2945 O.2     1  UNL1       -0.1499
     13 C          63.3910   90.6628   12.1417 C.ar    1  UNL1        0.1261
     14 C          63.8709   91.4834   10.9815 C.ar    1  UNL1        0.0211
     15 C          65.1005   92.3312   11.1202 C.ar    1  UNL1        0.0136
     16 C          65.8503   92.3583   12.4191 C.ar    1  UNL1        0.0683
     17 CL         67.0799   93.2061   12.5577 Cl      1  UNL1       -0.0814
     18 C          65.3703   91.5377   13.5794 C.ar    1  UNL1        0.0695
     19 CL         66.1200   91.5649   14.8783 Cl      1  UNL1       -0.0813
     20 C          64.1407   90.6899   13.4407 C.ar    1  UNL1        0.0324
     21 O          61.4345   86.0161   11.6691 O.3     1  UNL1       -0.4349
     22 C          63.3437   84.5654   12.6695 C.ar    1  UNL1        0.0879
     23 C          64.4277   83.5439   12.4929 C.ar    1  UNL1        0.0076
     24 C          64.6866   82.9513   11.1394 C.ar    1  UNL1        0.0003
     25 C          63.8615   83.3803    9.9626 C.ar    1  UNL1        0.0031
     26 C          62.7775   84.4019   10.1391 C.ar    1  UNL1        0.0377
     27 C          62.5186   84.9944   11.4926 C.ar    1  UNL1        0.1515
     28 O          61.9558   84.6413   14.8644 O.2     1  UNL1       -0.2700
     29 C          63.0848   85.1580   14.0229 C.2     1  UNL1        0.2489
     30 N          63.9549   86.2674   14.5348 N.am    1  UNL1       -0.2984
     31 H          64.6960   86.6066   13.9825 H       1  UNL1        0.1498
     32 C          63.6960   86.8600   15.8883 C.3     1  UNL1        0.1215
     33 C          63.0795   86.0216   16.9686 C.3     1  UNL1        0.1583
     34 O          61.6190   86.1579   17.2823 O.3     1  UNL1       -0.3802
     35 H          61.4471   87.0412   17.6443 H       1  UNL1        0.2105
@<TRIPOS>BOND
     1    28    29    2
     2    29    30   am
     3    30    32    1
     4    32    33    1
     5    33    34    1
     6    29    22    1
     7    22    23   ar
     8    23    24   ar
     9    24    25   ar
    10    25    26   ar
    11    26    27   ar
    12    27    21    1
    13    21     1    1
    14     1     2   ar
    15     2     3   ar
    16     3     4   ar
    17     4     5    1
    18     4     6   ar
    19     6     7   ar
    20     7     8    1
    21     8    10    1
    22    10    11    2
    23    10    12    2
    24    10    13    1
    25    13    14   ar
    26    14    15   ar
    27    15    16   ar
    28    16    17    1
    29    16    18   ar
    30    18    19    1
    31    18    20   ar
    32    27    22   ar
    33     7     1   ar
    34    20    13   ar
    35    30    31    1
    36    34    35    1
    37     8     9    1
@<TRIPOS>MOLECULE
*****
 35 37 0 0 0
SMALL
GASTEIGER

@<TRIPOS>ATOM
      1 C          61.9653   86.7533   11.0037 C.ar    1  UNL1        0.2445
      2 N          61.8734   85.8437    9.8145 N.ar    1  UNL1       -0.2078
      3 C          61.0284   86.2313    8.6373 C.ar    1  UNL1        0.1135
      4 C          60.2754   87.5285    8.6492 C.ar    1  UNL1        0.0783
      5 CL         59.4304   87.9161    7.4721 Cl      1  UNL1       -0.0806
      6 C          60.3672   88.4381    9.8384 C.ar    1  UNL1        0.0336
      7 C          61.2122   88.0505   11.0157 C.ar    1  UNL1        0.1190
      8 N          61.3041   88.9601   12.2048 N.pl3   1  UNL1       -0.2104
      9 H          60.5908   88.9568   12.8833 H       1  UNL1        0.1739
     10 S          62.4828   89.8748   12.3601 S.O2    1  UNL1        0.0737
     11 O          63.0230   88.9940   13.4475 O.2     1  UNL1       -0.1499
     12 O          61.9426   90.7556   11.2728 O.2     1  UNL1       -0.1499
     13 C          63.6615   90.7894   12.5154 C.ar    1  UNL1        0.1261
     14 C          64.3608   90.8935   13.8383 C.ar    1  UNL1        0.0211
     15 C          65.5395   91.8082   13.9936 C.ar    1  UNL1        0.0136
     16 C          66.0188   92.6188   12.8261 C.ar    1  UNL1        0.0683
     17 CL         67.1975   93.5334   12.9814 Cl      1  UNL1       -0.0814
     18 C          65.3195   92.5147   11.5031 C.ar    1  UNL1        0.0695
     19 CL         65.7988   93.3252   10.3356 Cl      1  UNL1       -0.0813
     20 C          64.1408   91.6000   11.3478 C.ar    1  UNL1        0.0324
     21 O          62.8102   86.3657   12.1809 O.3     1  UNL1       -0.4349
     22 C          63.2897   84.5800   14.0061 C.ar    1  UNL1        0.0879
     23 C          63.3766   83.1426   14.4261 C.ar    1  UNL1        0.0076
     24 C          63.0708   82.0536   13.4409 C.ar    1  UNL1        0.0003
     25 C          62.6781   82.4019   12.0358 C.ar    1  UNL1        0.0031
     26 C          62.5913   83.8392   11.6158 C.ar    1  UNL1        0.0377
     27 C          62.8971   84.9283   12.6009 C.ar    1  UNL1        0.1515
     28 O          64.8146   86.5239   14.8097 O.2     1  UNL1       -0.2700
     29 C          63.5956   85.6690   14.9912 C.2     1  UNL1        0.2489
     30 N          62.6823   85.9031   16.1578 N.am    1  UNL1       -0.2984
     31 H          61.8822   85.3420   16.2770 H       1  UNL1        0.1498
     32 C          62.9881   86.9922   17.1430 C.3     1  UNL1        0.1215
     33 C          63.1668   88.4040   16.6687 C.3     1  UNL1        0.1583
     34 O          61.9809   89.1931   16.1987 O.3     1  UNL1       -0.3802
     35 H          61.6270   88.7934   15.3888 H       1  UNL1        0.2105
@<TRIPOS>BOND
     1    28    29    2
     2    29    30   am
     3    30    32    1
     4    32    33    1
     5    33    34    1
     6    29    22    1
     7    22    23   ar
     8    23    24   ar
     9    24    25   ar
    10    25    26   ar
    11    26    27   ar
    12    27    21    1
    13    21     1    1
    14     1     2   ar
    15     2     3   ar
    16     3     4   ar
    17     4     5    1
    18     4     6   ar
    19     6     7   ar
    20     7     8    1
    21     8    10    1
    22    10    11    2
    23    10    12    2
    24    10    13    1
    25    13    14   ar
    26    14    15   ar
    27    15    16   ar
    28    16    17    1
    29    16    18   ar
    30    18    19    1
    31    18    20   ar
    32    27    22   ar
    33     7     1   ar
    34    20    13   ar
    35    30    31    1
    36    34    35    1
    37     8     9    1
@<TRIPOS>MOLECULE
*****
 35 37 0 0 0
SMALL
GASTEIGER

@<TRIPOS>ATOM
      1 C          63.3452   88.3606   13.0065 C.ar    1  UNL1        0.2445
      2 N          63.1488   87.2801   11.9846 N.ar    1  UNL1       -0.2078
      3 C          62.2104   87.4970   10.8347 C.ar    1  UNL1        0.1135
      4 C          61.4684   88.7942   10.7066 C.ar    1  UNL1        0.0783
      5 CL         60.5300   89.0111    9.5567 Cl      1  UNL1       -0.0806
      6 C          61.6647   89.8747   11.7284 C.ar    1  UNL1        0.0336
      7 C          62.6032   89.6579   12.8783 C.ar    1  UNL1        0.1190
      8 N          62.7995   90.7383   13.9001 N.pl3   1  UNL1       -0.2104
      9 H          62.0214   91.1270   14.3613 H       1  UNL1        0.1739
     10 S          64.1814   91.2266   14.2192 S.O2    1  UNL1        0.0737
     11 O          64.5468   91.1418   12.7669 O.2     1  UNL1       -0.1499
     12 O          63.8161   91.3115   15.6716 O.2     1  UNL1       -0.1499
     13 C          65.5633   91.7150   14.5383 C.ar    1  UNL1        0.1261
     14 C          65.8262   92.4308   15.8300 C.ar    1  UNL1        0.0211
     15 C          67.2081   92.9191   16.1491 C.ar    1  UNL1        0.0136
     16 C          68.3272   92.6916   15.1766 C.ar    1  UNL1        0.0683
     17 CL         69.7091   93.1800   15.4957 Cl      1  UNL1       -0.0814
     18 C          68.0644   91.9758   13.8848 C.ar    1  UNL1        0.0695
     19 CL         69.1834   91.7483   12.9123 Cl      1  UNL1       -0.0813
     20 C          66.6824   91.4874   13.5657 C.ar    1  UNL1        0.0324
     21 O          64.2836   88.1438   14.1564 O.3     1  UNL1       -0.4349
     22 C          63.8430   86.0400   15.6158 C.ar    1  UNL1        0.0879
     23 C          63.3409   85.4232   16.8876 C.ar    1  UNL1        0.0076
     24 C          62.7773   86.2933   17.9717 C.ar    1  UNL1        0.0003
     25 C          62.7158   87.7802   17.7840 C.ar    1  UNL1        0.0031
     26 C          63.2179   88.3970   16.5123 C.ar    1  UNL1        0.0377
     27 C          63.7815   87.5269   15.4282 C.ar    1  UNL1        0.1515
     28 O          65.8886   84.9617   14.4315 O.2     1  UNL1       -0.2700
     29 C          64.4066   85.1699   14.5318 C.2     1  UNL1        0.2489
     30 N          63.4881   84.5079   13.5479 N.am    1  UNL1       -0.2984
     31 H          62.5153   84.6444   13.6136 H       1  UNL1        0.1498
     32 C          64.0516   83.6377   12.4638 C.3     1  UNL1        0.1215
     33 C          64.1481   82.1546   12.6666 C.3     1  UNL1        0.1583
     34 O          63.8801   81.5636   14.0189 O.3     1  UNL1       -0.3802
     35 H          64.5635   81.8573   14.6414 H       1  UNL1        0.2105
@<TRIPOS>BOND
     1    28    29    2
     2    29    30   am
     3    30    32    1
     4    32    33    1
     5    33    34    1
     6    29    22    1
     7    22    23   ar
     8    23    24   ar
     9    24    25   ar
    10    25    26   ar
    11    26    27   ar
    12    27    21    1
    13    21     1    1
    14     1     2   ar
    15     2     3   ar
    16     3     4   ar
    17     4     5    1
    18     4     6   ar
    19     6     7   ar
    20     7     8    1
    21     8    10    1
    22    10    11    2
    23    10    12    2
    24    10    13    1
    25    13    14   ar
    26    14    15   ar
    27    15    16   ar
    28    16    17    1
    29    16    18   ar
    30    18    19    1
    31    18    20   ar
    32    27    22   ar
    33     7     1   ar
    34    20    13   ar
    35    30    31    1
    36    34    35    1
    37     8     9    1
@<TRIPOS>MOLECULE
*****
 35 37 0 0 0
SMALL
GASTEIGER

@<TRIPOS>ATOM
      1 C          63.1829   88.4250   12.4636 C.ar    1  UNL1        0.2445
      2 N          62.4101   87.3292   11.7913 N.ar    1  UNL1       -0.2078
      3 C          61.3836   87.6651   10.7504 C.ar    1  UNL1        0.1135
      4 C          61.1300   89.0968   10.3817 C.ar    1  UNL1        0.0783
      5 CL         60.1036   89.4326    9.3408 Cl      1  UNL1       -0.0806
      6 C          61.9029   90.1925   11.0539 C.ar    1  UNL1        0.0336
      7 C          62.9293   89.8567   12.0949 C.ar    1  UNL1        0.1190
      8 N          63.7022   90.9525   12.7671 N.pl3   1  UNL1       -0.2104
      9 H          63.6252   91.0839   13.7398 H       1  UNL1        0.1739
     10 S          64.5923   91.8481   11.9574 S.O2    1  UNL1        0.0737
     11 O          65.1830   92.4024   13.2199 O.2     1  UNL1       -0.1499
     12 O          64.0016   91.2938   10.6950 O.2     1  UNL1       -0.1499
     13 C          65.4824   92.7437   11.1477 C.ar    1  UNL1        0.1261
     14 C          65.1487   94.1987   11.0008 C.ar    1  UNL1        0.0211
     15 C          66.0388   95.0943   10.1912 C.ar    1  UNL1        0.0136
     16 C          67.2626   94.5349    9.5284 C.ar    1  UNL1        0.0683
     17 CL         68.1527   95.4305    8.7187 Cl      1  UNL1       -0.0814
     18 C          67.5964   93.0798    9.6753 C.ar    1  UNL1        0.0695
     19 CL         68.8202   92.5205    9.0125 Cl      1  UNL1       -0.0813
     20 C          66.7063   92.1842   10.4849 C.ar    1  UNL1        0.0324
     21 O          64.2094   88.0891   13.5045 O.3     1  UNL1       -0.4349
     22 C          63.6294   86.4025   15.3938 C.ar    1  UNL1        0.0879
     23 C          63.2039   86.1297   16.8060 C.ar    1  UNL1        0.0076
     24 C          62.9329   87.2707   17.7414 C.ar    1  UNL1        0.0003
     25 C          63.0874   88.6844   17.2644 C.ar    1  UNL1        0.0031
     26 C          63.5129   88.9572   15.8522 C.ar    1  UNL1        0.0377
     27 C          63.7839   87.8162   14.9169 C.ar    1  UNL1        0.1515
     28 O          65.2654   84.6420   14.4070 O.2     1  UNL1       -0.2700
     29 C          63.9004   85.2616   14.4584 C.2     1  UNL1        0.2489
     30 N          62.8064   84.7403   13.5746 N.am    1  UNL1       -0.2984
     31 H          61.9104   85.1470   13.6083 H       1  UNL1        0.1498
     32 C          63.0774   83.5994   12.6392 C.3     1  UNL1        0.1215
     33 C          63.7764   83.8481   11.3356 C.3     1  UNL1        0.1583
     34 O          64.9896   83.0453   10.9700 O.3     1  UNL1       -0.3802
     35 H          65.7117   83.2529   11.5836 H       1  UNL1        0.2105
@<TRIPOS>BOND
     1    28    29    2
     2    29    30   am
     3    30    32    1
     4    32    33    1
     5    33    34    1
     6    29    22    1
     7    22    23   ar
     8    23    24   ar
     9    24    25   ar
    10    25    26   ar
    11    26    27   ar
    12    27    21    1
    13    21     1    1
    14     1     2   ar
    15     2     3   ar
    16     3     4   ar
    17     4     5    1
    18     4     6   ar
    19     6     7   ar
    20     7     8    1
    21     8    10    1
    22    10    11    2
    23    10    12    2
    24    10    13    1
    25    13    14   ar
    26    14    15   ar
    27    15    16   ar
    28    16    17    1
    29    16    18   ar
    30    18    19    1
    31    18    20   ar
    32    27    22   ar
    33     7     1   ar
    34    20    13   ar
    35    30    31    1
    36    34    35    1
    37     8     9    1
@<TRIPOS>MOLECULE
*****
 35 37 0 0 0
SMALL
GASTEIGER

@<TRIPOS>ATOM
      1 C          63.1835   87.5147   13.0626 C.ar    1  UNL1        0.2445
      2 N          63.2610   88.7198   12.1726 N.ar    1  UNL1       -0.2078
      3 C          63.9767   89.9524   12.6399 C.ar    1  UNL1        0.1135
      4 C          64.6149   89.9801   13.9970 C.ar    1  UNL1        0.0783
      5 CL         65.3306   91.2128   14.4643 Cl      1  UNL1       -0.0806
      6 C          64.5374   88.7752   14.8870 C.ar    1  UNL1        0.0336
      7 C          63.8217   87.5424   14.4198 C.ar    1  UNL1        0.1190
      8 N          63.7442   86.3375   15.3097 N.pl3   1  UNL1       -0.2104
      9 H          63.8386   86.4386   16.2845 H       1  UNL1        0.1739
     10 S          63.5229   84.9785   14.7146 S.O2    1  UNL1        0.0737
     11 O          62.1280   84.9643   15.2659 O.2     1  UNL1       -0.1499
     12 O          64.9178   84.9928   14.1633 O.2     1  UNL1       -0.1499
     13 C          63.3016   83.6195   14.1195 C.ar    1  UNL1        0.1261
     14 C          64.3432   83.0131   13.2267 C.ar    1  UNL1        0.0211
     15 C          64.1219   81.6541   12.6315 C.ar    1  UNL1        0.0136
     16 C          62.8589   80.9016   12.9292 C.ar    1  UNL1        0.0683
     17 CL         62.6376   79.5426   12.3341 Cl      1  UNL1       -0.0814
     18 C          61.8172   81.5080   13.8221 C.ar    1  UNL1        0.0695
     19 CL         60.5543   80.7555   14.1198 Cl      1  UNL1       -0.0813
     20 C          62.0386   82.8670   14.4172 C.ar    1  UNL1        0.0324
     21 O          62.4678   86.2821   12.5954 O.3     1  UNL1       -0.4349
     22 C          61.8118   86.6393   10.1070 C.ar    1  UNL1        0.0879
     23 C          61.8966   86.2226    8.6685 C.ar    1  UNL1        0.0076
     24 C          62.7223   85.0321    8.2800 C.ar    1  UNL1        0.0003
     25 C          63.4631   84.2583    9.3299 C.ar    1  UNL1        0.0031
     26 C          63.3783   84.6749   10.7683 C.ar    1  UNL1        0.0377
     27 C          62.5526   85.8654   11.1568 C.ar    1  UNL1        0.1515
     28 O          61.0720   89.0955    9.6952 O.2     1  UNL1       -0.2700
     29 C          60.9862   87.8298   10.4955 C.2     1  UNL1        0.2489
     30 N          60.0747   87.7546   11.6844 N.am    1  UNL1       -0.2984
     31 H          60.0183   86.9239   12.2097 H       1  UNL1        0.1498
     32 C          59.2490   88.9451   12.0730 C.3     1  UNL1        0.1215
     33 C          58.3457   88.8735   13.2683 C.3     1  UNL1        0.1583
     34 O          56.8947   88.5362   13.0927 O.3     1  UNL1       -0.3802
     35 H          56.4551   89.2464   12.5994 H       1  UNL1        0.2105
@<TRIPOS>BOND
     1    28    29    2
     2    29    30   am
     3    30    32    1
     4    32    33    1
     5    33    34    1
     6    29    22    1
     7    22    23   ar
     8    23    24   ar
     9    24    25   ar
    10    25    26   ar
    11    26    27   ar
    12    27    21    1
    13    21     1    1
    14     1     2   ar
    15     2     3   ar
    16     3     4   ar
    17     4     5    1
    18     4     6   ar
    19     6     7   ar
    20     7     8    1
    21     8    10    1
    22    10    11    2
    23    10    12    2
    24    10    13    1
    25    13    14   ar
    26    14    15   ar
    27    15    16   ar
    28    16    17    1
    29    16    18   ar
    30    18    19    1
    31    18    20   ar
    32    27    22   ar
    33     7     1   ar
    34    20    13   ar
    35    30    31    1
    36    34    35    1
    37     8     9    1
@<TRIPOS>MOLECULE
*****
 35 37 0 0 0
SMALL
GASTEIGER

@<TRIPOS>ATOM
      1 C          63.0856   89.5734   11.7576 C.ar    1  UNL1        0.2445
      2 N          62.2251   90.4623   10.9093 N.ar    1  UNL1       -0.2078
      3 C          60.9540   89.9313   10.3160 C.ar    1  UNL1        0.1135
      4 C          60.5432   88.5113   10.5710 C.ar    1  UNL1        0.0783
      5 CL         59.2720   87.9803    9.9777 Cl      1  UNL1       -0.0806
      6 C          61.4036   87.6224   11.4192 C.ar    1  UNL1        0.0336
      7 C          62.6748   88.1535   12.0125 C.ar    1  UNL1        0.1190
      8 N          63.5352   87.2646   12.8608 N.pl3   1  UNL1       -0.2104
      9 H          64.2912   87.6454   13.3635 H       1  UNL1        0.1739
     10 S          63.2438   85.7955   12.9432 S.O2    1  UNL1        0.0737
     11 O          63.3361   85.8610   14.4389 O.2     1  UNL1       -0.1499
     12 O          63.1515   85.7299   11.4474 O.2     1  UNL1       -0.1499
     13 C          62.9523   84.3264   13.0255 C.ar    1  UNL1        0.1261
     14 C          62.4586   83.7306   14.3105 C.ar    1  UNL1        0.0211
     15 C          62.1672   82.2615   14.3929 C.ar    1  UNL1        0.0136
     16 C          62.3694   81.3882   13.1903 C.ar    1  UNL1        0.0683
     17 CL         62.0780   79.9191   13.2727 Cl      1  UNL1       -0.0814
     18 C          62.8632   81.9839   11.9052 C.ar    1  UNL1        0.0695
     19 CL         63.0654   81.1106   10.7026 Cl      1  UNL1       -0.0813
     20 C          63.1546   83.4530   11.8228 C.ar    1  UNL1        0.0324
     21 O          64.3568   90.1045   12.3509 O.3     1  UNL1       -0.4349
     22 C          65.2896   91.7475   14.1343 C.ar    1  UNL1        0.0879
     23 C          65.3003   92.2690   15.5406 C.ar    1  UNL1        0.0076
     24 C          64.3889   91.6691   16.5700 C.ar    1  UNL1        0.0003
     25 C          63.4668   90.5478   16.1930 C.ar    1  UNL1        0.0031
     26 C          63.4561   90.0262   14.7866 C.ar    1  UNL1        0.0377
     27 C          64.3675   90.6261   13.7573 C.ar    1  UNL1        0.1515
     28 O          67.6785   92.4089   13.3562 O.2     1  UNL1       -0.2700
     29 C          66.2010   92.3473   13.1050 C.2     1  UNL1        0.2489
     30 N          65.6349   92.8856   11.8245 N.am    1  UNL1       -0.2984
     31 H          64.6652   92.8452   11.6596 H       1  UNL1        0.1498
     32 C          66.5463   93.4854   10.7951 C.3     1  UNL1        0.1215
     33 C          67.5024   92.6110   10.0392 C.3     1  UNL1        0.1583
     34 O          68.9127   92.4478   10.5234 O.3     1  UNL1       -0.3802
     35 H          69.3786   93.2957   10.4539 H       1  UNL1        0.2105
@<TRIPOS>BOND
     1    28    29    2
     2    29    30   am
     3    30    32    1
     4    32    33    1
     5    33    34    1
     6    29    22    1
     7    22    23   ar
     8    23    24   ar
     9    24    25   ar
    10    25    26   ar
    11    26    27   ar
    12    27    21    1
    13    21     1    1
    14     1     2   ar
    15     2     3   ar
    16     3     4   ar
    17     4     5    1
    18     4     6   ar
    19     6     7   ar
    20     7     8    1
    21     8    10    1
    22    10    11    2
    23    10    12    2
    24    10    13    1
    25    13    14   ar
    26    14    15   ar
    27    15    16   ar
    28    16    17    1
    29    16    18   ar
    30    18    19    1
    31    18    20   ar
    32    27    22   ar
    33     7     1   ar
    34    20    13   ar
    35    30    31    1
    36    34    35    1
    37     8     9    1
@<TRIPOS>MOLECULE
*****
 35 37 0 0 0
SMALL
GASTEIGER

@<TRIPOS>ATOM
      1 C          63.3061   84.4318   13.9159 C.ar    1  UNL1        0.2445
      2 N          62.8417   83.5594   15.0443 N.ar    1  UNL1       -0.2078
      3 C          62.3033   82.1886   14.7599 C.ar    1  UNL1        0.1135
      4 C          62.2291   81.6902   13.3471 C.ar    1  UNL1        0.0783
      5 CL         61.6906   80.3194   13.0627 Cl      1  UNL1       -0.0806
      6 C          62.6934   82.5625   12.2187 C.ar    1  UNL1        0.0336
      7 C          63.2319   83.9334   12.5031 C.ar    1  UNL1        0.1190
      8 N          63.6962   84.8058   11.3746 N.pl3   1  UNL1       -0.2104
      9 H          64.6581   84.8931   11.1836 H       1  UNL1        0.1739
     10 S          62.6951   85.5450   10.5372 S.O2    1  UNL1        0.0737
     11 O          62.1687   86.2245   11.7665 O.2     1  UNL1       -0.1499
     12 O          63.2216   84.8655    9.3080 O.2     1  UNL1       -0.1499
     13 C          61.6940   86.2843    9.6998 C.ar    1  UNL1        0.1261
     14 C          61.0420   85.6022    8.5338 C.ar    1  UNL1        0.0211
     15 C          60.0408   86.3415    7.6964 C.ar    1  UNL1        0.0136
     16 C          59.6917   87.7628    8.0250 C.ar    1  UNL1        0.0683
     17 CL         58.6906   88.5020    7.1876 Cl      1  UNL1       -0.0814
     18 C          60.3438   88.4449    9.1911 C.ar    1  UNL1        0.0695
     19 CL         59.9947   89.8662    9.5197 Cl      1  UNL1       -0.0813
     20 C          61.3449   87.7056   10.0285 C.ar    1  UNL1        0.0324
     21 O          63.8446   85.8026   14.2003 O.3     1  UNL1       -0.4349
     22 C          63.5599   87.9829   15.5842 C.ar    1  UNL1        0.0879
     23 C          63.2254   88.6668   16.8767 C.ar    1  UNL1        0.0076
     24 C          62.8411   87.8543   18.0776 C.ar    1  UNL1        0.0003
     25 C          62.7913   86.3580   17.9861 C.ar    1  UNL1        0.0031
     26 C          63.1258   85.6741   16.6937 C.ar    1  UNL1        0.0377
     27 C          63.5101   86.4866   15.4927 C.ar    1  UNL1        0.1515
     28 O          65.1319   89.7094   14.4449 O.2     1  UNL1       -0.2700
     29 C          63.9442   88.7954   14.3833 C.2     1  UNL1        0.2489
     30 N          63.1407   88.6939   13.1208 N.am    1  UNL1       -0.2984
     31 H          62.3611   88.0941   13.0803 H       1  UNL1        0.1498
     32 C          63.5250   89.5064   11.9199 C.3     1  UNL1        0.1215
     33 C          63.2206   90.9747   11.8791 C.3     1  UNL1        0.1583
     34 O          63.6300   91.8574   13.0206 O.3     1  UNL1       -0.3802
     35 H          63.1316   91.6104   13.8153 H       1  UNL1        0.2105
@<TRIPOS>BOND
     1    28    29    2
     2    29    30   am
     3    30    32    1
     4    32    33    1
     5    33    34    1
     6    29    22    1
     7    22    23   ar
     8    23    24   ar
     9    24    25   ar
    10    25    26   ar
    11    26    27   ar
    12    27    21    1
    13    21     1    1
    14     1     2   ar
    15     2     3   ar
    16     3     4   ar
    17     4     5    1
    18     4     6   ar
    19     6     7   ar
    20     7     8    1
    21     8    10    1
    22    10    11    2
    23    10    12    2
    24    10    13    1
    25    13    14   ar
    26    14    15   ar
    27    15    16   ar
    28    16    17    1
    29    16    18   ar
    30    18    19    1
    31    18    20   ar
    32    27    22   ar
    33     7     1   ar
    34    20    13   ar
    35    30    31    1
    36    34    35    1
    37     8     9    1
@<TRIPOS>MOLECULE
*****
 35 37 0 0 0
SMALL
GASTEIGER

@<TRIPOS>ATOM
      1 C          62.2024   85.5384   11.0514 C.ar    1  UNL1        0.2445
      2 N          62.7606   84.2482   10.5280 N.ar    1  UNL1       -0.2078
      3 C          62.9682   84.0641    9.0539 C.ar    1  UNL1        0.1135
      4 C          62.6177   85.1701    8.1032 C.ar    1  UNL1        0.0783
      5 CL         62.8254   84.9860    6.6292 Cl      1  UNL1       -0.0806
      6 C          62.0596   86.4602    8.6266 C.ar    1  UNL1        0.0336
      7 C          61.8519   86.6444   10.1007 C.ar    1  UNL1        0.1190
      8 N          61.2937   87.9345   10.6241 N.pl3   1  UNL1       -0.2104
      9 H          60.3194   88.0559   10.6966 H       1  UNL1        0.1739
     10 S          62.2200   89.0398   11.0370 S.O2    1  UNL1        0.0737
     11 O          61.5633   89.0866   12.3848 O.2     1  UNL1       -0.1499
     12 O          62.8767   88.9929    9.6892 O.2     1  UNL1       -0.1499
     13 C          63.1462   90.1450   11.4500 C.ar    1  UNL1        0.1261
     14 C          63.5578   91.1895   10.4553 C.ar    1  UNL1        0.0211
     15 C          64.4841   92.2948   10.8682 C.ar    1  UNL1        0.0136
     16 C          64.9988   92.3555   12.2758 C.ar    1  UNL1        0.0683
     17 CL         65.9250   93.4607   12.6887 Cl      1  UNL1       -0.0814
     18 C          64.5872   91.3109   13.2706 C.ar    1  UNL1        0.0695
     19 CL         65.1018   91.3715   14.6782 Cl      1  UNL1       -0.0813
     20 C          63.6609   90.2056   12.8577 C.ar    1  UNL1        0.0324
     21 O          61.9947   85.7224   12.5255 O.3     1  UNL1       -0.4349
     22 C          63.6106   84.3512   14.0283 C.ar    1  UNL1        0.0879
     23 C          64.7820   84.2953   14.9635 C.ar    1  UNL1        0.0076
     24 C          65.5090   85.5549   15.3311 C.ar    1  UNL1        0.0003
     25 C          65.0645   86.8702   14.7635 C.ar    1  UNL1        0.0031
     26 C          63.8931   86.9261   13.8284 C.ar    1  UNL1        0.0377
     27 C          63.1662   85.6666   13.4608 C.ar    1  UNL1        0.1515
     28 O          61.6636   82.6783   14.4292 O.2     1  UNL1       -0.2700
     29 C          62.8837   83.0917   13.6607 C.2     1  UNL1        0.2489
     30 N          63.3768   82.2454   12.5247 N.am    1  UNL1       -0.2984
     31 H          64.1775   82.5167   12.0203 H       1  UNL1        0.1498
     32 C          62.6498   80.9859   12.1571 C.3     1  UNL1        0.1215
     33 C          62.7451   79.7792   13.0430 C.3     1  UNL1        0.1583
     34 O          62.9903   79.9457   14.5134 O.3     1  UNL1       -0.3802
     35 H          63.8741   80.3201   14.6534 H       1  UNL1        0.2105
@<TRIPOS>BOND
     1    28    29    2
     2    29    30   am
     3    30    32    1
     4    32    33    1
     5    33    34    1
     6    29    22    1
     7    22    23   ar
     8    23    24   ar
     9    24    25   ar
    10    25    26   ar
    11    26    27   ar
    12    27    21    1
    13    21     1    1
    14     1     2   ar
    15     2     3   ar
    16     3     4   ar
    17     4     5    1
    18     4     6   ar
    19     6     7   ar
    20     7     8    1
    21     8    10    1
    22    10    11    2
    23    10    12    2
    24    10    13    1
    25    13    14   ar
    26    14    15   ar
    27    15    16   ar
    28    16    17    1
    29    16    18   ar
    30    18    19    1
    31    18    20   ar
    32    27    22   ar
    33     7     1   ar
    34    20    13   ar
    35    30    31    1
    36    34    35    1
    37     8     9    1
