@<TRIPOS>MOLECULE
*****
 36 39 0 0 0
SMALL
GASTEIGER

@<TRIPOS>ATOM
      1 C          60.6534   88.8125    9.3542 C.ar    1  UNL1       -0.0231
      2 C          59.7935   88.4444    8.1816 C.ar    1  UNL1       -0.0246
      3 C          59.8024   87.0393    7.6567 C.ar    1  UNL1       -0.0045
      4 C          60.6713   86.0022    8.3043 C.ar    1  UNL1       -0.0002
      5 C          61.5312   86.3703    9.4769 C.ar    1  UNL1        0.0027
      6 C          61.5223   87.7754   10.0019 C.ar    1  UNL1        0.0322
      7 C          62.3823   88.1434   11.1746 C.ar    1  UNL1        0.1700
      8 N          62.7431   87.2445   12.3199 N.ar    1  UNL1       -0.1885
      9 S          63.6162   88.0205   13.2609 S.2     1  UNL1        0.0341
     10 C          63.7950   89.3990   12.6972 C.ar    1  UNL1        0.1299
     11 N          63.0323   89.4750   11.4078 N.ar    1  UNL1       -0.2181
     12 C          64.5957   90.5070   13.3145 C.ar    1  UNL1        0.0259
     13 C          64.9516   90.4538   14.7707 C.ar    1  UNL1        0.0018
     14 C          65.7524   91.5618   15.3880 C.ar    1  UNL1       -0.0035
     15 C          66.1973   92.7230   14.5491 C.ar    1  UNL1       -0.0126
     16 C          65.8414   92.7762   13.0929 C.ar    1  UNL1        0.0645
     17 C          65.0407   91.6682   12.4756 C.ar    1  UNL1        0.0120
     18 C          66.2863   93.9374   12.2540 C.1     1  UNL1        0.1001
     19 N          66.7312   95.0985   11.4152 N.1     1  UNL1       -0.1908
     20 C          66.9980   93.8310   15.1664 C.3     1  UNL1        0.0270
     21 C          68.3503   93.5445   15.7488 C.3     1  UNL1        0.0044
     22 C          69.2676   94.6760   16.1073 C.3     1  UNL1        0.0003
     23 C          68.7855   92.1266   15.9728 C.3     1  UNL1        0.0003
     24 C          59.7722   90.5770   11.0453 C.3     1  UNL1        0.0050
     25 C          60.6445   90.2176    9.8792 C.3     1  UNL1        0.0261
     26 C          58.9246   89.4815    7.5339 C.3     1  UNL1        0.0433
     27 C          58.6926   89.4467    6.0524 C.3     1  UNL1        0.0768
     28 N          59.2300   90.5446    5.1830 N.3     1  UNL1       -0.2724
     29 C          58.2939   91.5483    4.5779 C.3     1  UNL1        0.0725
     30 C          58.8313   92.6462    3.7086 C.3     1  UNL1        0.0229
     31 C          60.3049   92.7404    3.4444 C.3     1  UNL1        0.0393
     32 C          61.2410   91.7367    4.0495 C.3     1  UNL1        0.0229
     33 C          60.7035   90.6388    4.9189 C.3     1  UNL1        0.0725
     34 C          60.8423   93.8383    2.5750 C.2     1  UNL1        0.0501
     35 O          60.0836   95.1249    2.4368 O.co2   1  UNL1       -0.5492
     36 O          62.1384   93.6497    1.8439 O.co2   1  UNL1       -0.5492
@<TRIPOS>UNITY_ATOM_ATTR
35 1
charge -1
@<TRIPOS>BOND
     1    24    25    1
     2    25     1    1
     3     1     2   ar
     4     2    26    1
     5    26    27    1
     6    27    28    1
     7    28    29    1
     8    29    30    1
     9    30    31    1
    10    31    34    1
    11    34    35   ar
    12    34    36   ar
    13    31    32    1
    14    32    33    1
    15     2     3   ar
    16     3     4   ar
    17     4     5   ar
    18     5     6   ar
    19     6     7    1
    20     7     8   ar
    21     8     9   ar
    22     9    10   ar
    23    10    12    1
    24    12    13   ar
    25    13    14   ar
    26    14    15   ar
    27    15    20    1
    28    20    21    1
    29    21    22    1
    30    21    23    1
    31    15    16   ar
    32    16    18    1
    33    18    19    3
    34    16    17   ar
    35    10    11   ar
    36     6     1   ar
    37    11     7   ar
    38    33    28    1
    39    17    12   ar
@<TRIPOS>MOLECULE
*****
 36 39 0 0 0
SMALL
GASTEIGER

@<TRIPOS>ATOM
      1 C          61.6358   86.5924    9.1998 C.ar    1  UNL1       -0.0231
      2 C          61.2885   85.5865    8.1427 C.ar    1  UNL1       -0.0246
      3 C          60.1955   85.8800    7.1582 C.ar    1  UNL1       -0.0045
      4 C          59.4498   87.1795    7.2308 C.ar    1  UNL1       -0.0002
      5 C          59.7972   88.1854    8.2878 C.ar    1  UNL1        0.0027
      6 C          60.8901   87.8919    9.2723 C.ar    1  UNL1        0.0322
      7 C          61.2375   88.8979   10.3294 C.ar    1  UNL1        0.1700
      8 N          60.2656   89.6052   11.2268 N.ar    1  UNL1       -0.1885
      9 S          61.0451   90.5176   12.1266 S.2     1  UNL1        0.0341
     10 C          62.4988   90.3743   11.7854 C.ar    1  UNL1        0.1299
     11 N          62.6176   89.3733   10.6747 N.ar    1  UNL1       -0.2181
     12 C          63.6342   91.1040   12.4400 C.ar    1  UNL1        0.0259
     13 C          63.9807   90.8220   13.8719 C.ar    1  UNL1        0.0018
     14 C          65.1161   91.5516   14.5265 C.ar    1  UNL1       -0.0035
     15 C          65.9050   92.5632   13.7491 C.ar    1  UNL1       -0.0126
     16 C          65.5585   92.8452   12.3172 C.ar    1  UNL1        0.0645
     17 C          64.4231   92.1156   11.6626 C.ar    1  UNL1        0.0120
     18 C          66.3474   93.8569   11.5399 C.1     1  UNL1        0.1001
     19 N          67.1363   94.8684   10.7626 N.1     1  UNL1       -0.1908
     20 C          67.0404   93.2929   14.4037 C.3     1  UNL1        0.0270
     21 C          68.3124   92.5662   14.7259 C.3     1  UNL1        0.0044
     22 C          69.1096   91.9266   13.6279 C.3     1  UNL1        0.0003
     23 C          68.7873   92.4789   16.1461 C.3     1  UNL1        0.0003
     24 C          62.4125   86.1935   11.6467 C.3     1  UNL1        0.0050
     25 C          62.7288   86.2989   10.1843 C.3     1  UNL1        0.0261
     26 C          62.0341   84.2869    8.0702 C.3     1  UNL1        0.0433
     27 C          63.3715   84.1514    8.7358 C.3     1  UNL1        0.0768
     28 N          63.4709   83.5391   10.1016 N.3     1  UNL1       -0.2724
     29 C          62.2717   82.8818   10.7179 C.3     1  UNL1        0.0725
     30 C          62.3712   82.2696   12.0836 C.3     1  UNL1        0.0229
     31 C          63.6698   82.3146   12.8330 C.3     1  UNL1        0.0393
     32 C          64.8690   82.9720   12.2167 C.3     1  UNL1        0.0229
     33 C          64.7695   83.5842   10.8510 C.3     1  UNL1        0.0725
     34 C          63.7692   81.7024   14.1988 C.2     1  UNL1        0.0501
     35 O          64.0972   82.5616   15.3838 O.co2   1  UNL1       -0.5492
     36 O          63.5406   80.2310   14.3796 O.co2   1  UNL1       -0.5492
@<TRIPOS>UNITY_ATOM_ATTR
35 1
charge -1
@<TRIPOS>BOND
     1    24    25    1
     2    25     1    1
     3     1     2   ar
     4     2    26    1
     5    26    27    1
     6    27    28    1
     7    28    29    1
     8    29    30    1
     9    30    31    1
    10    31    34    1
    11    34    35   ar
    12    34    36   ar
    13    31    32    1
    14    32    33    1
    15     2     3   ar
    16     3     4   ar
    17     4     5   ar
    18     5     6   ar
    19     6     7    1
    20     7     8   ar
    21     8     9   ar
    22     9    10   ar
    23    10    12    1
    24    12    13   ar
    25    13    14   ar
    26    14    15   ar
    27    15    20    1
    28    20    21    1
    29    21    22    1
    30    21    23    1
    31    15    16   ar
    32    16    18    1
    33    18    19    3
    34    16    17   ar
    35    10    11   ar
    36     6     1   ar
    37    11     7   ar
    38    33    28    1
    39    17    12   ar
@<TRIPOS>MOLECULE
*****
 36 39 0 0 0
SMALL
GASTEIGER

@<TRIPOS>ATOM
      1 C          60.4977   88.0458    9.0202 C.ar    1  UNL1       -0.0231
      2 C          60.7418   87.5384   10.4105 C.ar    1  UNL1       -0.0246
      3 C          60.5337   88.4452   11.5872 C.ar    1  UNL1       -0.0045
      4 C          60.0815   89.8593   11.3735 C.ar    1  UNL1       -0.0002
      5 C          59.8374   90.3667    9.9832 C.ar    1  UNL1        0.0027
      6 C          60.0455   89.4599    8.8066 C.ar    1  UNL1        0.0322
      7 C          59.8014   89.9674    7.4163 C.ar    1  UNL1        0.1700
      8 N          58.4939   89.9326    6.6819 N.ar    1  UNL1       -0.1885
      9 S          58.7063   90.5424    5.3280 S.2     1  UNL1        0.0341
     10 C          60.1451   90.9541    5.2256 C.ar    1  UNL1        0.1299
     11 N          60.8219   90.5987    6.5162 N.ar    1  UNL1       -0.2181
     12 C          60.7933   91.6066    4.0407 C.ar    1  UNL1        0.0259
     13 C          62.2149   91.2812    3.6898 C.ar    1  UNL1        0.0018
     14 C          62.8631   91.9337    2.5048 C.ar    1  UNL1       -0.0035
     15 C          62.0897   92.9116    1.6709 C.ar    1  UNL1       -0.0126
     16 C          60.6681   93.2371    2.0218 C.ar    1  UNL1        0.0645
     17 C          60.0199   92.5846    3.2067 C.ar    1  UNL1        0.0120
     18 C          59.8947   94.2150    1.1878 C.1     1  UNL1        0.1001
     19 N          59.1214   95.1929    0.3539 N.1     1  UNL1       -0.1908
     20 C          62.7379   93.5641    0.4859 C.3     1  UNL1        0.0270
     21 C          63.6894   94.7063    0.6860 C.3     1  UNL1        0.0044
     22 C          63.2671   95.9030    1.4859 C.3     1  UNL1        0.0003
     23 C          65.0632   94.6520    0.0863 C.3     1  UNL1        0.0003
     24 C          59.6702   86.1110    7.4966 C.3     1  UNL1        0.0050
     25 C          60.7058   87.1391    7.8436 C.3     1  UNL1        0.0261
     26 C          61.1941   86.1242   10.6242 C.3     1  UNL1        0.0433
     27 C          62.3351   85.8340   11.5537 C.3     1  UNL1        0.0768
     28 N          62.5188   84.4519   12.1070 N.3     1  UNL1       -0.2724
     29 C          62.4279   84.2179   13.5858 C.3     1  UNL1        0.0725
     30 C          62.6117   82.8358   14.1390 C.3     1  UNL1        0.0229
     31 C          62.8863   81.6878   13.2135 C.3     1  UNL1        0.0393
     32 C          62.9773   81.9219   11.7347 C.3     1  UNL1        0.0229
     33 C          62.7935   83.3039   11.1814 C.3     1  UNL1        0.0725
     34 C          63.0701   80.3057   13.7668 C.2     1  UNL1        0.0501
     35 O          62.0174   79.2613   13.5408 O.co2   1  UNL1       -0.5492
     36 O          64.3065   79.9681   14.5461 O.co2   1  UNL1       -0.5492
@<TRIPOS>UNITY_ATOM_ATTR
35 1
charge -1
@<TRIPOS>BOND
     1    24    25    1
     2    25     1    1
     3     1     2   ar
     4     2    26    1
     5    26    27    1
     6    27    28    1
     7    28    29    1
     8    29    30    1
     9    30    31    1
    10    31    34    1
    11    34    35   ar
    12    34    36   ar
    13    31    32    1
    14    32    33    1
    15     2     3   ar
    16     3     4   ar
    17     4     5   ar
    18     5     6   ar
    19     6     7    1
    20     7     8   ar
    21     8     9   ar
    22     9    10   ar
    23    10    12    1
    24    12    13   ar
    25    13    14   ar
    26    14    15   ar
    27    15    20    1
    28    20    21    1
    29    21    22    1
    30    21    23    1
    31    15    16   ar
    32    16    18    1
    33    18    19    3
    34    16    17   ar
    35    10    11   ar
    36     6     1   ar
    37    11     7   ar
    38    33    28    1
    39    17    12   ar
@<TRIPOS>MOLECULE
*****
 36 39 0 0 0
SMALL
GASTEIGER

@<TRIPOS>ATOM
      1 C          60.6097   93.4352    1.1533 C.ar    1  UNL1       -0.0231
      2 C          61.4221   94.0681    0.0627 C.ar    1  UNL1       -0.0246
      3 C          62.9155   94.1383    0.1843 C.ar    1  UNL1       -0.0045
      4 C          63.5965   93.5755    1.3965 C.ar    1  UNL1       -0.0002
      5 C          62.7841   92.9425    2.4871 C.ar    1  UNL1        0.0027
      6 C          61.2907   92.8724    2.3655 C.ar    1  UNL1        0.0322
      7 C          60.4782   92.2395    3.4561 C.ar    1  UNL1        0.1700
      8 N          59.0263   92.4932    3.7345 N.ar    1  UNL1       -0.1885
      9 S          58.6259   91.6522    4.9102 S.2     1  UNL1        0.0341
     10 C          59.8304   90.8787    5.3585 C.ar    1  UNL1        0.1299
     11 N          60.9752   91.2417    4.4598 N.ar    1  UNL1       -0.2181
     12 C          59.8812   89.9120    6.5044 C.ar    1  UNL1        0.0259
     13 C          59.3173   88.5311    6.3461 C.ar    1  UNL1        0.0018
     14 C          59.3680   87.5644    7.4919 C.ar    1  UNL1       -0.0035
     15 C          59.9827   87.9786    8.7960 C.ar    1  UNL1       -0.0126
     16 C          60.5466   89.3595    8.9543 C.ar    1  UNL1        0.0645
     17 C          60.4958   90.3262    7.8084 C.ar    1  UNL1        0.0120
     18 C          61.1613   89.7737   10.2583 C.1     1  UNL1        0.1001
     19 N          61.7759   90.1879   11.5624 N.1     1  UNL1       -0.1908
     20 C          60.0334   87.0119    9.9418 C.3     1  UNL1        0.0270
     21 C          61.2658   86.1891   10.1747 C.3     1  UNL1        0.0044
     22 C          62.1364   85.7981    9.0175 C.3     1  UNL1        0.0003
     23 C          61.6276   85.7571   11.5649 C.3     1  UNL1        0.0003
     24 C          58.4884   92.4637    0.0102 C.3     1  UNL1        0.0050
     25 C          59.1162   93.3651    1.0316 C.3     1  UNL1        0.0261
     26 C          60.7411   94.6310   -1.1496 C.3     1  UNL1        0.0433
     27 C          60.6982   93.8376   -2.4218 C.3     1  UNL1        0.0768
     28 N          61.8762   93.8450   -3.3504 N.3     1  UNL1       -0.2724
     29 C          61.9399   94.8375   -4.4732 C.3     1  UNL1        0.0725
     30 C          63.1179   94.8448   -5.4018 C.3     1  UNL1        0.0229
     31 C          64.2322   93.8596   -5.2075 C.3     1  UNL1        0.0393
     32 C          64.1685   92.8671   -4.0846 C.3     1  UNL1        0.0229
     33 C          62.9905   92.8598   -3.1561 C.3     1  UNL1        0.0725
     34 C          65.4103   93.8670   -6.1361 C.2     1  UNL1        0.0501
     35 O          65.8424   95.1463   -6.7893 O.co2   1  UNL1       -0.5492
     36 O          66.1562   92.5951   -6.4114 O.co2   1  UNL1       -0.5492
@<TRIPOS>UNITY_ATOM_ATTR
35 1
charge -1
@<TRIPOS>BOND
     1    24    25    1
     2    25     1    1
     3     1     2   ar
     4     2    26    1
     5    26    27    1
     6    27    28    1
     7    28    29    1
     8    29    30    1
     9    30    31    1
    10    31    34    1
    11    34    35   ar
    12    34    36   ar
    13    31    32    1
    14    32    33    1
    15     2     3   ar
    16     3     4   ar
    17     4     5   ar
    18     5     6   ar
    19     6     7    1
    20     7     8   ar
    21     8     9   ar
    22     9    10   ar
    23    10    12    1
    24    12    13   ar
    25    13    14   ar
    26    14    15   ar
    27    15    20    1
    28    20    21    1
    29    21    22    1
    30    21    23    1
    31    15    16   ar
    32    16    18    1
    33    18    19    3
    34    16    17   ar
    35    10    11   ar
    36     6     1   ar
    37    11     7   ar
    38    33    28    1
    39    17    12   ar
@<TRIPOS>MOLECULE
*****
 36 39 0 0 0
SMALL
GASTEIGER

@<TRIPOS>ATOM
      1 C          61.6208   86.6711    9.1291 C.ar    1  UNL1       -0.0231
      2 C          61.2657   85.6273    8.1121 C.ar    1  UNL1       -0.0246
      3 C          60.1589   85.8809    7.1320 C.ar    1  UNL1       -0.0045
      4 C          59.4072   87.1784    7.1689 C.ar    1  UNL1       -0.0002
      5 C          59.7623   88.2222    8.1858 C.ar    1  UNL1        0.0027
      6 C          60.8691   87.9686    9.1659 C.ar    1  UNL1        0.0322
      7 C          61.2241   89.0125   10.1829 C.ar    1  UNL1        0.1700
      8 N          60.2546   89.8009   11.0126 N.ar    1  UNL1       -0.1885
      9 S          61.0423   90.7270   11.8912 S.2     1  UNL1        0.0341
     10 C          62.4988   90.5108   11.6046 C.ar    1  UNL1        0.1299
     11 N          62.6111   89.4512   10.5488 N.ar    1  UNL1       -0.2181
     12 C          63.6421   91.2283   12.2588 C.ar    1  UNL1        0.0259
     13 C          64.7138   91.8557   11.4174 C.ar    1  UNL1        0.0018
     14 C          65.8571   92.5732   12.0717 C.ar    1  UNL1       -0.0035
     15 C          65.9287   92.6633   13.5673 C.ar    1  UNL1       -0.0126
     16 C          64.8570   92.0359   14.4086 C.ar    1  UNL1        0.0645
     17 C          63.7137   91.3184   13.7544 C.ar    1  UNL1        0.0120
     18 C          64.9286   92.1260   15.9042 C.1     1  UNL1        0.1001
     19 N          65.0002   92.2162   17.3997 N.1     1  UNL1       -0.1908
     20 C          67.0720   93.3808   14.2215 C.3     1  UNL1        0.0270
     21 C          68.2889   92.6168   14.6522 C.3     1  UNL1        0.0044
     22 C          68.7032   92.6168   16.0939 C.3     1  UNL1        0.0003
     23 C          69.0917   91.8528   13.6412 C.3     1  UNL1        0.0003
     24 C          62.4232   86.3157   11.5745 C.3     1  UNL1        0.0050
     25 C          62.7276   86.4175   10.1092 C.3     1  UNL1        0.0261
     26 C          62.0175   84.3297    8.0753 C.3     1  UNL1        0.0433
     27 C          63.3532   84.2174    8.7485 C.3     1  UNL1        0.0768
     28 N          63.4576   83.5921   10.1080 N.3     1  UNL1       -0.2724
     29 C          64.7690   83.5952   10.8362 C.3     1  UNL1        0.0725
     30 C          64.8733   82.9700   12.1957 C.3     1  UNL1        0.0229
     31 C          63.6664   82.3417   12.8270 C.3     1  UNL1        0.0393
     32 C          62.3550   82.3386   12.0988 C.3     1  UNL1        0.0229
     33 C          62.2507   82.9638   10.7393 C.3     1  UNL1        0.0725
     34 C          63.7708   81.7165   14.1865 C.2     1  UNL1        0.0501
     35 O          64.0532   82.5721   15.3858 O.co2   1  UNL1       -0.5492
     36 O          63.5929   80.2357   14.3467 O.co2   1  UNL1       -0.5492
@<TRIPOS>UNITY_ATOM_ATTR
35 1
charge -1
@<TRIPOS>BOND
     1    24    25    1
     2    25     1    1
     3     1     2   ar
     4     2    26    1
     5    26    27    1
     6    27    28    1
     7    28    29    1
     8    29    30    1
     9    30    31    1
    10    31    34    1
    11    34    35   ar
    12    34    36   ar
    13    31    32    1
    14    32    33    1
    15     2     3   ar
    16     3     4   ar
    17     4     5   ar
    18     5     6   ar
    19     6     7    1
    20     7     8   ar
    21     8     9   ar
    22     9    10   ar
    23    10    12    1
    24    12    13   ar
    25    13    14   ar
    26    14    15   ar
    27    15    20    1
    28    20    21    1
    29    21    22    1
    30    21    23    1
    31    15    16   ar
    32    16    18    1
    33    18    19    3
    34    16    17   ar
    35    10    11   ar
    36     6     1   ar
    37    11     7   ar
    38    33    28    1
    39    17    12   ar
@<TRIPOS>MOLECULE
*****
 36 39 0 0 0
SMALL
GASTEIGER

@<TRIPOS>ATOM
      1 C          61.6977   86.3828    9.8325 C.ar    1  UNL1       -0.0231
      2 C          62.4818   85.8767   11.0067 C.ar    1  UNL1       -0.0246
      3 C          62.8776   86.8174   12.1060 C.ar    1  UNL1       -0.0045
      4 C          62.4893   88.2643   12.0310 C.ar    1  UNL1       -0.0002
      5 C          61.7051   88.7704   10.8567 C.ar    1  UNL1        0.0027
      6 C          61.3093   87.8297    9.7575 C.ar    1  UNL1        0.0322
      7 C          60.5252   88.3359    8.5832 C.ar    1  UNL1        0.1700
      8 N          59.1926   87.8218    8.1252 N.ar    1  UNL1       -0.1885
      9 S          58.7798   88.6132    6.9197 S.2     1  UNL1        0.0341
     10 C          59.8573   89.6166    6.6327 C.ar    1  UNL1        0.1299
     11 N          60.9360   89.4452    7.6608 N.ar    1  UNL1       -0.2181
     12 C          59.8562   90.6159    5.5140 C.ar    1  UNL1        0.0259
     13 C          58.5833   91.3101    5.1297 C.ar    1  UNL1        0.0018
     14 C          58.5822   92.3093    4.0110 C.ar    1  UNL1       -0.0035
     15 C          59.8541   92.6144    3.2767 C.ar    1  UNL1       -0.0126
     16 C          61.1271   91.9202    3.6610 C.ar    1  UNL1        0.0645
     17 C          61.1281   90.9209    4.7797 C.ar    1  UNL1        0.0120
     18 C          62.3990   92.2253    2.9267 C.1     1  UNL1        0.1001
     19 N          63.6708   92.5303    2.1924 N.1     1  UNL1       -0.1908
     20 C          59.8531   93.6137    2.1580 C.3     1  UNL1        0.0270
     21 C          59.5135   93.1779    0.7635 C.3     1  UNL1        0.0044
     22 C          58.6432   94.0412   -0.1011 C.3     1  UNL1        0.0003
     23 C          60.0442   91.8789    0.2334 C.3     1  UNL1        0.0003
     24 C          62.2773   85.1092    7.6434 C.3     1  UNL1        0.0050
     25 C          61.3019   85.4421    8.7332 C.3     1  UNL1        0.0261
     26 C          62.8702   84.4297   11.0817 C.3     1  UNL1        0.0433
     27 C          63.4789   83.8807   12.3379 C.3     1  UNL1        0.0768
     28 N          63.3410   84.6323   13.6288 N.3     1  UNL1       -0.2724
     29 C          64.3714   85.6506   14.0175 C.3     1  UNL1        0.0725
     30 C          64.2334   86.4021   15.3083 C.3     1  UNL1        0.0229
     31 C          63.0651   86.1352   16.2104 C.3     1  UNL1        0.0393
     32 C          62.0347   85.1169   15.8217 C.3     1  UNL1        0.0229
     33 C          62.1726   84.3654   14.5309 C.3     1  UNL1        0.0725
     34 C          62.9271   86.8868   17.5013 C.2     1  UNL1        0.0501
     35 O          62.5412   86.1593   18.7550 O.co2   1  UNL1       -0.5492
     36 O          63.1751   88.3656   17.5383 O.co2   1  UNL1       -0.5492
@<TRIPOS>UNITY_ATOM_ATTR
35 1
charge -1
@<TRIPOS>BOND
     1    24    25    1
     2    25     1    1
     3     1     2   ar
     4     2    26    1
     5    26    27    1
     6    27    28    1
     7    28    29    1
     8    29    30    1
     9    30    31    1
    10    31    34    1
    11    34    35   ar
    12    34    36   ar
    13    31    32    1
    14    32    33    1
    15     2     3   ar
    16     3     4   ar
    17     4     5   ar
    18     5     6   ar
    19     6     7    1
    20     7     8   ar
    21     8     9   ar
    22     9    10   ar
    23    10    12    1
    24    12    13   ar
    25    13    14   ar
    26    14    15   ar
    27    15    20    1
    28    20    21    1
    29    21    22    1
    30    21    23    1
    31    15    16   ar
    32    16    18    1
    33    18    19    3
    34    16    17   ar
    35    10    11   ar
    36     6     1   ar
    37    11     7   ar
    38    33    28    1
    39    17    12   ar
@<TRIPOS>MOLECULE
*****
 36 39 0 0 0
SMALL
GASTEIGER

@<TRIPOS>ATOM
      1 C          60.6005   93.4622    1.1832 C.ar    1  UNL1       -0.0231
      2 C          61.4111   94.0884    0.0873 C.ar    1  UNL1       -0.0246
      3 C          62.9082   94.1053    0.1778 C.ar    1  UNL1       -0.0045
      4 C          63.5949   93.4961    1.3640 C.ar    1  UNL1       -0.0002
      5 C          62.7844   92.8700    2.4599 C.ar    1  UNL1        0.0027
      6 C          61.2872   92.8530    2.3694 C.ar    1  UNL1        0.0322
      7 C          60.4767   92.2268    3.4654 C.ar    1  UNL1        0.1700
      8 N          59.0279   92.4900    3.7511 N.ar    1  UNL1       -0.1885
      9 S          58.6285   91.6533    4.9303 S.2     1  UNL1        0.0341
     10 C          59.8305   90.8729    5.3733 C.ar    1  UNL1        0.1299
     11 N          60.9727   91.2273    4.4679 N.ar    1  UNL1       -0.2181
     12 C          59.8813   89.9076    6.5203 C.ar    1  UNL1        0.0259
     13 C          59.3136   88.5279    6.3651 C.ar    1  UNL1        0.0018
     14 C          59.3644   87.5626    7.5121 C.ar    1  UNL1       -0.0035
     15 C          59.9830   87.9770    8.8143 C.ar    1  UNL1       -0.0126
     16 C          60.5507   89.3567    8.9695 C.ar    1  UNL1        0.0645
     17 C          60.4999   90.3220    7.8225 C.ar    1  UNL1        0.0120
     18 C          61.1693   89.7711   10.2717 C.1     1  UNL1        0.1001
     19 N          61.7878   90.1855   11.5738 N.1     1  UNL1       -0.1908
     20 C          60.0338   87.0117    9.9612 C.3     1  UNL1        0.0270
     21 C          61.2698   86.1964   10.2010 C.3     1  UNL1        0.0044
     22 C          62.1347   85.7878    9.0455 C.3     1  UNL1        0.0003
     23 C          61.6410   85.7895   11.5963 C.3     1  UNL1        0.0003
     24 C          58.4168   92.4486    0.2065 C.3     1  UNL1        0.0050
     25 C          59.1034   93.4452    1.0927 C.3     1  UNL1        0.0261
     26 C          60.7244   94.6976   -1.0991 C.3     1  UNL1        0.0433
     27 C          60.9347   94.1183   -2.4666 C.3     1  UNL1        0.0768
     28 N          59.7549   93.7032   -3.2948 N.3     1  UNL1       -0.2724
     29 C          58.8379   92.6219   -2.8051 C.3     1  UNL1        0.0725
     30 C          57.6582   92.2068   -3.6334 C.3     1  UNL1        0.0229
     31 C          57.3955   92.8732   -4.9513 C.3     1  UNL1        0.0393
     32 C          58.3125   93.9545   -5.4410 C.3     1  UNL1        0.0229
     33 C          59.4922   94.3695   -4.6128 C.3     1  UNL1        0.0725
     34 C          56.2157   92.4581   -5.7796 C.2     1  UNL1        0.0501
     35 O          55.5694   93.4413   -6.7099 O.co2   1  UNL1       -0.5492
     36 O          55.6824   91.0599   -5.6775 O.co2   1  UNL1       -0.5492
@<TRIPOS>UNITY_ATOM_ATTR
35 1
charge -1
@<TRIPOS>BOND
     1    24    25    1
     2    25     1    1
     3     1     2   ar
     4     2    26    1
     5    26    27    1
     6    27    28    1
     7    28    29    1
     8    29    30    1
     9    30    31    1
    10    31    34    1
    11    34    35   ar
    12    34    36   ar
    13    31    32    1
    14    32    33    1
    15     2     3   ar
    16     3     4   ar
    17     4     5   ar
    18     5     6   ar
    19     6     7    1
    20     7     8   ar
    21     8     9   ar
    22     9    10   ar
    23    10    12    1
    24    12    13   ar
    25    13    14   ar
    26    14    15   ar
    27    15    20    1
    28    20    21    1
    29    21    22    1
    30    21    23    1
    31    15    16   ar
    32    16    18    1
    33    18    19    3
    34    16    17   ar
    35    10    11   ar
    36     6     1   ar
    37    11     7   ar
    38    33    28    1
    39    17    12   ar
@<TRIPOS>MOLECULE
*****
 36 39 0 0 0
SMALL
GASTEIGER

@<TRIPOS>ATOM
      1 C          60.6268   93.2972    1.0813 C.ar    1  UNL1       -0.0231
      2 C          61.4424   93.9280   -0.0081 C.ar    1  UNL1       -0.0246
      3 C          62.9160   94.1340    0.1818 C.ar    1  UNL1       -0.0045
      4 C          63.5740   93.7092    1.4610 C.ar    1  UNL1       -0.0002
      5 C          62.7584   93.0783    2.5504 C.ar    1  UNL1        0.0027
      6 C          61.2848   92.8724    2.3605 C.ar    1  UNL1        0.0322
      7 C          60.4692   92.2415    3.4500 C.ar    1  UNL1        0.1700
      8 N          59.0189   92.5030    3.7296 N.ar    1  UNL1       -0.1885
      9 S          58.6141   91.6615    4.9035 S.2     1  UNL1        0.0341
     10 C          59.8143   90.8799    5.3494 C.ar    1  UNL1        0.1299
     11 N          60.9608   91.2384    4.4511 N.ar    1  UNL1       -0.2181
     12 C          59.8599   89.9101    6.4929 C.ar    1  UNL1        0.0259
     13 C          59.2866   88.5334    6.3320 C.ar    1  UNL1        0.0018
     14 C          59.3322   87.5637    7.4754 C.ar    1  UNL1       -0.0035
     15 C          59.9512   87.9706    8.7798 C.ar    1  UNL1       -0.0126
     16 C          60.5245   89.3474    8.9407 C.ar    1  UNL1        0.0645
     17 C          60.4788   90.3171    7.7972 C.ar    1  UNL1        0.0120
     18 C          61.1434   89.7544   10.2450 C.1     1  UNL1        0.1001
     19 N          61.7623   90.1613   11.5493 N.1     1  UNL1       -0.1908
     20 C          59.9968   87.0009    9.9232 C.3     1  UNL1        0.0270
     21 C          61.2401   86.2021   10.1799 C.3     1  UNL1        0.0044
     22 C          62.0927   85.7513    9.0309 C.3     1  UNL1        0.0003
     23 C          61.6312   85.8538   11.5856 C.3     1  UNL1        0.0003
     24 C          58.6514   92.2969   -0.2778 C.3     1  UNL1        0.0050
     25 C          59.1532   93.0912    0.8915 C.3     1  UNL1        0.0261
     26 C          60.7844   94.3529   -1.2874 C.3     1  UNL1        0.0433
     27 C          60.0484   95.6582   -1.3547 C.3     1  UNL1        0.0768
     28 N          58.5905   95.6799   -1.7070 N.3     1  UNL1       -0.2724
     29 C          58.0769   94.8254   -2.8277 C.3     1  UNL1        0.0725
     30 C          56.6190   94.8471   -3.1799 C.3     1  UNL1        0.0229
     31 C          55.6747   95.7233   -2.4114 C.3     1  UNL1        0.0393
     32 C          56.1883   96.5778   -1.2907 C.3     1  UNL1        0.0229
     33 C          57.6462   96.5561   -0.9385 C.3     1  UNL1        0.0725
     34 C          54.2168   95.7450   -2.7636 C.2     1  UNL1        0.0501
     35 O          53.1833   95.5700   -1.6906 O.co2   1  UNL1       -0.5492
     36 O          53.7924   95.9416   -4.1888 O.co2   1  UNL1       -0.5492
@<TRIPOS>UNITY_ATOM_ATTR
35 1
charge -1
@<TRIPOS>BOND
     1    24    25    1
     2    25     1    1
     3     1     2   ar
     4     2    26    1
     5    26    27    1
     6    27    28    1
     7    28    29    1
     8    29    30    1
     9    30    31    1
    10    31    34    1
    11    34    35   ar
    12    34    36   ar
    13    31    32    1
    14    32    33    1
    15     2     3   ar
    16     3     4   ar
    17     4     5   ar
    18     5     6   ar
    19     6     7    1
    20     7     8   ar
    21     8     9   ar
    22     9    10   ar
    23    10    12    1
    24    12    13   ar
    25    13    14   ar
    26    14    15   ar
    27    15    20    1
    28    20    21    1
    29    21    22    1
    30    21    23    1
    31    15    16   ar
    32    16    18    1
    33    18    19    3
    34    16    17   ar
    35    10    11   ar
    36     6     1   ar
    37    11     7   ar
    38    33    28    1
    39    17    12   ar
@<TRIPOS>MOLECULE
*****
 36 39 0 0 0
SMALL
GASTEIGER

@<TRIPOS>ATOM
      1 C          61.8989   94.7667    0.4963 C.ar    1  UNL1       -0.0231
      2 C          63.1846   94.6299    1.2566 C.ar    1  UNL1       -0.0246
      3 C          63.5231   93.3332    1.9304 C.ar    1  UNL1       -0.0045
      4 C          62.5758   92.1734    1.8440 C.ar    1  UNL1       -0.0002
      5 C          61.2901   92.3103    1.0837 C.ar    1  UNL1        0.0027
      6 C          60.9517   93.6069    0.4098 C.ar    1  UNL1        0.0322
      7 C          59.6658   93.7438   -0.3505 C.ar    1  UNL1        0.1700
      8 N          58.4565   94.5121    0.0934 N.ar    1  UNL1       -0.1885
      9 S          57.4069   94.3795   -0.9700 S.2     1  UNL1        0.0341
     10 C          57.9676   93.5291   -2.0712 C.ar    1  UNL1        0.1299
     11 N          59.3637   93.1363   -1.6883 N.ar    1  UNL1       -0.2181
     12 C          57.2570   93.1400   -3.3336 C.ar    1  UNL1        0.0259
     13 C          56.9506   91.6974   -3.6076 C.ar    1  UNL1        0.0018
     14 C          56.2400   91.3083   -4.8700 C.ar    1  UNL1       -0.0035
     15 C          55.8358   92.3618   -5.8583 C.ar    1  UNL1       -0.0126
     16 C          56.1422   93.8044   -5.5843 C.ar    1  UNL1        0.0645
     17 C          56.8528   94.1935   -4.3219 C.ar    1  UNL1        0.0120
     18 C          55.7379   94.8579   -6.5727 C.1     1  UNL1        0.1001
     19 N          55.3337   95.9113   -7.5610 N.1     1  UNL1       -0.1908
     20 C          55.1252   91.9727   -7.1207 C.3     1  UNL1        0.0270
     21 C          54.8393   90.5280   -7.4056 C.3     1  UNL1        0.0044
     22 C          53.4216   90.0555   -7.5361 C.3     1  UNL1        0.0003
     23 C          55.9710   89.5557   -7.5601 C.3     1  UNL1        0.0003
     24 C          61.3477   96.1041   -1.6618 C.3     1  UNL1        0.0050
     25 C          61.5604   96.0634   -0.1776 C.3     1  UNL1        0.0261
     26 C          64.1320   95.7897    1.3431 C.3     1  UNL1        0.0433
     27 C          65.2661   95.9060    0.3683 C.3     1  UNL1        0.0768
     28 N          65.0214   95.6923   -1.0961 N.3     1  UNL1       -0.2724
     29 C          64.5239   94.3653   -1.5875 C.3     1  UNL1        0.0725
     30 C          64.2792   94.1516   -3.0519 C.3     1  UNL1        0.0229
     31 C          64.5321   95.2649   -4.0248 C.3     1  UNL1        0.0393
     32 C          65.0296   96.5919   -3.5334 C.3     1  UNL1        0.0229
     33 C          65.2743   96.8056   -2.0690 C.3     1  UNL1        0.0725
     34 C          64.2874   95.0512   -5.4893 C.2     1  UNL1        0.0501
     35 O          62.9328   94.6202   -5.9682 O.co2   1  UNL1       -0.5492
     36 O          65.3972   95.2685   -6.4747 O.co2   1  UNL1       -0.5492
@<TRIPOS>UNITY_ATOM_ATTR
35 1
charge -1
@<TRIPOS>BOND
     1    24    25    1
     2    25     1    1
     3     1     2   ar
     4     2    26    1
     5    26    27    1
     6    27    28    1
     7    28    29    1
     8    29    30    1
     9    30    31    1
    10    31    34    1
    11    34    35   ar
    12    34    36   ar
    13    31    32    1
    14    32    33    1
    15     2     3   ar
    16     3     4   ar
    17     4     5   ar
    18     5     6   ar
    19     6     7    1
    20     7     8   ar
    21     8     9   ar
    22     9    10   ar
    23    10    12    1
    24    12    13   ar
    25    13    14   ar
    26    14    15   ar
    27    15    20    1
    28    20    21    1
    29    21    22    1
    30    21    23    1
    31    15    16   ar
    32    16    18    1
    33    18    19    3
    34    16    17   ar
    35    10    11   ar
    36     6     1   ar
    37    11     7   ar
    38    33    28    1
    39    17    12   ar
