@<TRIPOS>MOLECULE
*****
 71 79 0 0 0
SMALL
GASTEIGER

@<TRIPOS>ATOM
      1 C          59.1166   95.1872   -1.2560 C.3     1  UNL1        0.1217
      2 N          64.5341   96.3007   -4.7432 N.3     1  UNL1       -0.1862
      3 C          63.9063   96.1321   -6.0950 C.3     1  UNL1        0.1775
      4 C          62.4461   95.8082   -6.2086 C.2     1  UNL1        0.2452
      5 O          61.8182   95.6396   -7.5605 O.2     1  UNL1       -0.2732
      6 N          61.6137   95.6529   -4.9705 N.am    1  UNL1       -0.2541
      7 C          60.1535   95.3291   -5.0841 C.3     1  UNL1        0.1577
      8 C          59.3211   95.1738   -3.8460 C.2     1  UNL1        0.2445
      9 O          57.8609   94.8500   -3.9596 O.2     1  UNL1       -0.2731
     10 N          59.9490   95.3425   -2.4941 N.am    1  UNL1       -0.2705
     11 C          61.4092   95.6663   -2.3805 C.3     1  UNL1        0.1359
     12 C          62.2415   95.8216   -3.6187 C.3     1  UNL1        0.1908
     13 N          63.7017   96.1454   -3.5051 N.am    1  UNL1       -0.1863
     14 C          64.3296   96.3140   -2.1532 C.2     1  UNL1        0.3191
     15 O          63.4972   96.1588   -0.9151 O.2     1  UNL1       -0.2512
     16 N          65.7898   96.6379   -2.0396 N.am    1  UNL1       -0.2836
     17 H          66.3361   96.7398   -2.8522 H       1  UNL1        0.1513
     18 C          65.9943   96.6245   -4.6296 C.3     1  UNL1        0.1188
     19 C          67.1172   95.6052   -6.7391 C.2     1  UNL1       -0.0034
     20 C          67.0146   95.7145   -5.2466 C.2     1  UNL1       -0.0071
     21 C          59.5256   95.1605   -6.4359 C.3     1  UNL1        0.0556
     22 C          58.0490   95.3605   -6.6072 C.ar    1  UNL1       -0.0198
     23 C          57.2101   94.2741   -7.2122 C.ar    1  UNL1       -0.0011
     24 C          55.7334   94.4742   -7.3835 C.ar    1  UNL1        0.0363
     25 C          55.0956   95.7607   -6.9499 C.ar    1  UNL1        0.1337
     26 O          53.6189   95.9607   -7.1212 O.3     1  UNL1       -0.5055
     27 C          55.9344   96.8472   -6.3449 C.ar    1  UNL1        0.0363
     28 C          57.4111   96.6471   -6.1735 C.ar    1  UNL1       -0.0011
     29 H          53.0949   95.2821   -7.4991 H       1  UNL1        0.2922
     30 C          66.4176   96.8065   -0.6878 C.3     1  UNL1        0.1177
     31 C          65.8527   96.0811    0.4973 C.ar    1  UNL1       -0.0025
     32 C          65.5293   94.6197    0.3980 C.ar    1  UNL1       -0.0026
     33 C          64.9644   93.8943    1.5831 C.ar    1  UNL1       -0.0003
     34 C          64.7227   94.6302    2.8676 C.ar    1  UNL1       -0.0000
     35 C          65.0460   96.0916    2.9670 C.ar    1  UNL1       -0.0003
     36 C          65.6110   96.8171    1.7819 C.ar    1  UNL1       -0.0026
     37 C          59.7753   94.8874    0.0579 C.ar    1  UNL1        0.0135
     38 C          60.9474   95.7053    0.5132 C.ar    1  UNL1       -0.0012
     39 C          61.6061   95.4055    1.8270 C.ar    1  UNL1       -0.0002
     40 C          61.0928   94.2878    2.6856 C.ar    1  UNL1        0.0015
     41 C          59.9207   93.4699    2.2303 C.ar    1  UNL1        0.0170
     42 C          59.1988   92.3144    2.8578 C.ar    1  UNL1        0.0186
     43 C          58.0940   91.9001    1.9317 C.ar    1  UNL1        0.0759
     44 N          58.1330   92.7994    0.7320 N.ar    1  UNL1       -0.3242
     45 C          57.2059   92.7392   -0.4456 C.3     1  UNL1        0.1305
     46 C          59.2620   93.7697    0.9165 C.ar    1  UNL1        0.0575
     47 C          59.5247   91.6839    4.1793 C.ar    1  UNL1        0.0015
     48 C          60.9512   91.3925    4.5399 C.ar    1  UNL1        0.0002
     49 C          61.2770   90.7621    5.8614 C.ar    1  UNL1        0.0045
     50 C          60.1762   90.4230    6.8223 C.ar    1  UNL1        0.0537
     51 C          58.7497   90.7144    6.4617 C.ar    1  UNL1        0.0045
     52 C          58.4239   91.3448    5.1402 C.ar    1  UNL1        0.0002
     53 C          60.5020   89.7926    8.1438 C.2     1  UNL1        0.2495
     54 O          60.1656   88.3518    8.3907 O.2     1  UNL1       -0.2698
     55 N          61.1644   90.6028    9.2185 N.am    1  UNL1       -0.2804
     56 H          61.3852   91.5484    9.0565 H       1  UNL1        0.1552
     57 C          61.4901   89.9723   10.5399 C.ar    1  UNL1        0.0506
     58 C          62.1665   90.7783   11.6090 C.ar    1  UNL1        0.0159
     59 C          62.4923   90.1478   12.9305 C.ar    1  UNL1        0.0158
     60 C          62.1418   88.7114   13.1829 C.ar    1  UNL1        0.0480
     61 C          61.4654   87.9054   12.1138 C.ar    1  UNL1        0.0158
     62 C          61.1396   88.5358   10.7923 C.ar    1  UNL1        0.0159
     63 N          62.4676   88.0808   14.5043 N.pl3   1  UNL1       -0.3041
     64 C          63.1461   86.7438   14.5504 C.3     1  UNL1        0.1123
     65 C          63.4719   86.1132   15.8719 C.3     1  UNL1        0.1148
     66 N          63.1192   86.8196   17.1472 N.am    1  UNL1       -0.2760
     67 C          63.4450   86.1891   18.4687 C.2     1  UNL1        0.2262
     68 C          64.1235   84.8521   18.5147 C.3     1  UNL1        0.0948
     69 O          63.0924   86.8955   19.7441 O.2     1  UNL1       -0.2749
     70 C          62.4407   88.1566   17.1012 C.3     1  UNL1        0.1148
     71 C          62.1149   88.7872   15.7797 C.3     1  UNL1        0.1123
@<TRIPOS>BOND
     1    19    20    2
     2    20    18    1
     3    18     2    1
     4     2     3    1
     5     3     4    1
     6     4     5    2
     7     4     6   am
     8     6     7    1
     9     7    21    1
    10    21    22    1
    11    22    23   ar
    12    23    24   ar
    13    24    25   ar
    14    25    26    1
    15    25    27   ar
    16    27    28   ar
    17     7     8    1
    18     8     9    2
    19     8    10   am
    20    10     1    1
    21     1    37    1
    22    37    38   ar
    23    38    39   ar
    24    39    40   ar
    25    40    41   ar
    26    41    42   ar
    27    42    47    1
    28    47    48   ar
    29    48    49   ar
    30    49    50   ar
    31    50    53    1
    32    53    54    2
    33    53    55   am
    34    55    57    1
    35    57    58   ar
    36    58    59   ar
    37    59    60   ar
    38    60    63    1
    39    63    64    1
    40    64    65    1
    41    65    66    1
    42    66    67   am
    43    67    68    1
    44    67    69    2
    45    66    70    1
    46    70    71    1
    47    60    61   ar
    48    61    62   ar
    49    50    51   ar
    50    51    52   ar
    51    42    43   ar
    52    43    44   ar
    53    44    45    1
    54    44    46   ar
    55    10    11    1
    56    12    11    1
    57    12    13    1
    58    13    14   am
    59    14    15    2
    60    14    16   am
    61    16    30    1
    62    30    31    1
    63    31    32   ar
    64    32    33   ar
    65    33    34   ar
    66    34    35   ar
    67    35    36   ar
    68    13     2    1
    69    36    31   ar
    70    12     6    1
    71    28    22   ar
    72    46    37   ar
    73    46    41   ar
    74    52    47   ar
    75    62    57   ar
    76    71    63    1
    77    26    29    1
    78    55    56    1
    79    16    17    1
