@<TRIPOS>MOLECULE
*****
 46 51 0 0 0
SMALL
GASTEIGER

@<TRIPOS>ATOM
      1 C          64.3828   89.8287   13.3540 C.ar    1  UNL1        0.1348
      2 C          63.6630   90.6364   12.3150 C.ar    1  UNL1        0.0346
      3 C          62.7896   89.9523   11.3055 C.ar    1  UNL1        0.0065
      4 C          62.6360   88.4605   11.3350 C.ar    1  UNL1        0.0432
      5 C          63.3558   87.6528   12.3739 C.ar    1  UNL1        0.1256
      6 N          64.2292   88.3369   13.3834 N.ar    1  UNL1       -0.2222
      7 C          61.7625   87.7764   10.3255 C.ar    1  UNL1        0.0851
      8 C          60.2796   87.9497   10.1809 C.ar    1  UNL1        0.1035
      9 N          59.8193   87.0793    9.0493 N.ar    1  UNL1       -0.2263
     10 C          61.0177   86.3679    8.4946 C.ar    1  UNL1        0.1486
     11 C          61.1705   85.3835    7.3732 C.ar    1  UNL1        0.0488
     12 C          62.5243   84.8299    7.0405 C.ar    1  UNL1        0.0622
     13 CL         62.6771   83.8455    5.9191 Cl      1  UNL1       -0.0821
     14 C          63.7254   85.2607    7.8291 C.ar    1  UNL1        0.0305
     15 C          63.5725   86.2451    8.9505 C.ar    1  UNL1        0.0823
     16 N          62.2187   86.7987    9.2833 N.ar    1  UNL1       -0.2887
     17 C          59.4098   88.8377   11.0204 C.ar    1  UNL1        0.0723
     18 C          58.6407   88.2620   12.1725 C.ar    1  UNL1        0.0078
     19 C          57.7708   89.1500   13.0121 C.ar    1  UNL1        0.0209
     20 C          57.6700   90.6136   12.6996 C.ar    1  UNL1        0.1021
     21 N          58.4390   91.1892   11.5475 N.ar    1  UNL1       -0.2101
     22 C          59.3089   90.3013   10.7080 C.ar    1  UNL1        0.2264
     23 O          60.0779   90.8770    9.5559 O.3     1  UNL1       -0.4561
     24 C          60.0731   90.1798    8.2278 C.3     1  UNL1        0.2542
     25 C          66.1362   91.6529   13.9440 C.2     1  UNL1        0.2414
     26 O          66.1428   92.1088   12.5149 O.2     1  UNL1       -0.2733
     27 N          65.2562   90.5129   14.3635 N.am    1  UNL1       -0.2682
     28 H          65.2519   90.2136   15.3014 H       1  UNL1        0.1563
     29 C          67.0096   92.3370   14.9535 C.3     1  UNL1        0.1319
     30 C          66.4723   92.6545   16.3176 C.3     1  UNL1        0.0270
     31 C          69.2405   93.5301   15.5445 C.3     1  UNL1        0.0862
     32 N          68.4202   92.7036   14.5990 N.3     1  UNL1       -0.2902
     33 H          68.9254   91.8287   14.4584 H       1  UNL1        0.1237
     34 C          63.2022   86.1609   12.4034 C.1     1  UNL1       -0.0404
     35 C          63.0486   84.6691   12.4329 C.1     1  UNL1       -0.0583
     36 C          62.8951   83.1773   12.4624 C.ar    1  UNL1        0.0420
     37 C          62.6100   82.4781   13.7584 C.ar    1  UNL1        0.0083
     38 C          62.4564   80.9863   13.7879 C.ar    1  UNL1        0.0018
     39 C          62.5880   80.1937   12.5212 C.ar    1  UNL1        0.0137
     40 C          62.4344   78.7018   12.5507 C.ar    1  UNL1        0.0594
     41 C          62.1493   78.0027   13.8468 C.3     1  UNL1        0.0521
     42 N          62.5659   77.9091   11.2841 N.ar    1  UNL1       -0.2481
     43 C          62.8511   78.6083    9.9879 C.ar    1  UNL1        0.0984
     44 C          63.0046   80.1001    9.9585 C.ar    1  UNL1        0.0207
     45 C          62.8731   80.8928   11.2252 C.ar    1  UNL1        0.0033
     46 C          63.0266   82.3846   11.1957 C.ar    1  UNL1        0.0083
@<TRIPOS>BOND
     1    31    32    1
     2    32    29    1
     3    29    30    1
     4    29    25    1
     5    25    26    2
     6    25    27   am
     7    27     1    1
     8     1     2   ar
     9     2     3   ar
    10     3     4   ar
    11     4     7    1
    12     7     8   ar
    13     8    17    1
    14    17    18   ar
    15    18    19   ar
    16    19    20   ar
    17    20    21   ar
    18    21    22   ar
    19    22    23    1
    20    23    24    1
    21     8     9   ar
    22     9    10   ar
    23    10    11   ar
    24    11    12   ar
    25    12    13    1
    26    12    14   ar
    27    14    15   ar
    28    15    16   ar
    29     4     5   ar
    30     5    34    1
    31    34    35    3
    32    35    36    1
    33    36    37   ar
    34    37    38   ar
    35    38    39   ar
    36    39    40   ar
    37    40    41    1
    38    40    42   ar
    39    42    43   ar
    40    43    44   ar
    41    44    45   ar
    42    45    46   ar
    43     5     6   ar
    44     6     1   ar
    45    16     7   ar
    46    46    36   ar
    47    22    17   ar
    48    16    10   ar
    49    45    39   ar
    50    32    33    1
    51    27    28    1
@<TRIPOS>MOLECULE
*****
 46 51 0 0 0
SMALL
GASTEIGER

@<TRIPOS>ATOM
      1 C          59.8392   90.6344    5.6632 C.ar    1  UNL1        0.1348
      2 C          59.0065   89.3967    5.8196 C.ar    1  UNL1        0.0346
      3 C          59.1254   88.5648    7.0621 C.ar    1  UNL1        0.0065
      4 C          60.0770   88.9707    8.1482 C.ar    1  UNL1        0.0432
      5 C          60.9098   90.2085    7.9918 C.ar    1  UNL1        0.1256
      6 N          60.7908   91.0403    6.7492 N.ar    1  UNL1       -0.2222
      7 C          60.1960   88.1388    9.3907 C.ar    1  UNL1        0.0851
      8 C          60.7164   86.7340    9.4648 C.ar    1  UNL1        0.1035
      9 N          60.6574   86.2926   10.8972 N.ar    1  UNL1       -0.2263
     10 C          60.1006   87.4248   11.7084 C.ar    1  UNL1        0.1486
     11 C          59.8163   87.5641   13.1746 C.ar    1  UNL1        0.0488
     12 C          59.2469   88.8445   13.7098 C.ar    1  UNL1        0.0622
     13 CL         58.9626   88.9838   15.1760 Cl      1  UNL1       -0.0821
     14 C          58.9617   89.9855   12.7788 C.ar    1  UNL1        0.0305
     15 C          59.2459   89.8462   11.3126 C.ar    1  UNL1        0.0823
     16 N          59.8154   88.5657   10.7774 N.ar    1  UNL1       -0.2887
     17 C          61.2093   85.9143    8.3092 C.ar    1  UNL1        0.0723
     18 C          60.3650   85.7702    7.0777 C.ar    1  UNL1        0.0078
     19 C          60.8579   84.9505    5.9222 C.ar    1  UNL1        0.0209
     20 C          62.1950   84.2749    5.9981 C.ar    1  UNL1        0.1021
     21 N          63.0392   84.4190    7.2296 N.ar    1  UNL1       -0.2101
     22 C          62.5463   85.2387    8.3851 C.ar    1  UNL1        0.2264
     23 O          63.3906   85.3827    9.6166 O.3     1  UNL1       -0.4561
     24 C          63.5138   84.2391   10.5794 C.3     1  UNL1        0.2542
     25 C          60.9497   91.8353    3.6446 C.2     1  UNL1        0.2414
     26 O          62.2981   91.3724    4.1111 O.2     1  UNL1       -0.2733
     27 N          59.7202   91.4663    4.4207 N.am    1  UNL1       -0.2682
     28 H          58.8352   91.7701    4.1145 H       1  UNL1        0.1563
     29 C          60.8307   92.6672    2.4021 C.3     1  UNL1        0.1319
     30 C          62.0404   93.3538    1.8406 C.3     1  UNL1        0.0270
     31 C          59.3492   93.7621    0.5701 C.3     1  UNL1        0.0862
     32 N          59.5022   92.8125    1.7211 N.3     1  UNL1       -0.2902
     33 H          59.2456   91.8876    1.3758 H       1  UNL1        0.1237
     34 C          61.8615   90.6144    9.0779 C.1     1  UNL1       -0.0404
     35 C          62.8131   91.0203   10.1639 C.1     1  UNL1       -0.0583
     36 C          63.7648   91.4262   11.2500 C.ar    1  UNL1        0.0420
     37 C          65.0434   92.1294   10.9027 C.ar    1  UNL1        0.0083
     38 C          65.9950   92.5353   11.9887 C.ar    1  UNL1        0.0018
     39 C          65.6681   92.2380   13.4222 C.ar    1  UNL1        0.0137
     40 C          66.6198   92.6440   14.5083 C.ar    1  UNL1        0.0594
     41 C          67.8984   93.3471   14.1609 C.3     1  UNL1        0.0521
     42 N          66.2928   92.3467   15.9417 N.ar    1  UNL1       -0.2481
     43 C          65.0142   91.6434   16.2890 C.ar    1  UNL1        0.0984
     44 C          64.0625   91.2375   15.2029 C.ar    1  UNL1        0.0207
     45 C          64.3895   91.5348   13.7695 C.ar    1  UNL1        0.0033
     46 C          63.4379   91.1289   12.6834 C.ar    1  UNL1        0.0083
@<TRIPOS>BOND
     1    31    32    1
     2    32    29    1
     3    29    30    1
     4    29    25    1
     5    25    26    2
     6    25    27   am
     7    27     1    1
     8     1     2   ar
     9     2     3   ar
    10     3     4   ar
    11     4     7    1
    12     7     8   ar
    13     8    17    1
    14    17    18   ar
    15    18    19   ar
    16    19    20   ar
    17    20    21   ar
    18    21    22   ar
    19    22    23    1
    20    23    24    1
    21     8     9   ar
    22     9    10   ar
    23    10    11   ar
    24    11    12   ar
    25    12    13    1
    26    12    14   ar
    27    14    15   ar
    28    15    16   ar
    29     4     5   ar
    30     5    34    1
    31    34    35    3
    32    35    36    1
    33    36    37   ar
    34    37    38   ar
    35    38    39   ar
    36    39    40   ar
    37    40    41    1
    38    40    42   ar
    39    42    43   ar
    40    43    44   ar
    41    44    45   ar
    42    45    46   ar
    43     5     6   ar
    44     6     1   ar
    45    16     7   ar
    46    46    36   ar
    47    22    17   ar
    48    16    10   ar
    49    45    39   ar
    50    32    33    1
    51    27    28    1
@<TRIPOS>MOLECULE
*****
 46 51 0 0 0
SMALL
GASTEIGER

@<TRIPOS>ATOM
      1 C          60.8487   87.9269    8.7723 C.ar    1  UNL1        0.1348
      2 C          60.5338   86.5819    9.3571 C.ar    1  UNL1        0.0346
      3 C          61.1408   86.1725   10.6663 C.ar    1  UNL1        0.0065
      4 C          62.0627   87.1080   11.3907 C.ar    1  UNL1        0.0432
      5 C          62.3776   88.4530   10.8059 C.ar    1  UNL1        0.1256
      6 N          61.7706   88.8624    9.4968 N.ar    1  UNL1       -0.2222
      7 C          62.6698   86.6986   12.6998 C.ar    1  UNL1        0.0851
      8 C          63.2605   85.3567   13.0165 C.ar    1  UNL1        0.1035
      9 N          63.7485   85.3880   14.4346 N.ar    1  UNL1       -0.2263
     10 C          63.4593   86.7492   14.9943 C.ar    1  UNL1        0.1486
     11 C          63.7169   87.3559   16.3418 C.ar    1  UNL1        0.0488
     12 C          63.3079   88.7725   16.6171 C.ar    1  UNL1        0.0622
     13 CL         63.5655   89.3791   17.9646 Cl      1  UNL1       -0.0821
     14 C          62.6412   89.5826   15.5450 C.ar    1  UNL1        0.0305
     15 C          62.3836   88.9760   14.1976 C.ar    1  UNL1        0.0823
     16 N          62.7926   87.5592   13.9222 N.ar    1  UNL1       -0.2887
     17 C          63.3479   84.1886   12.0796 C.ar    1  UNL1        0.0723
     18 C          63.9703   84.3583   10.7253 C.ar    1  UNL1        0.0078
     19 C          64.0577   83.1901    9.7884 C.ar    1  UNL1        0.0209
     20 C          63.5228   81.8523   10.2056 C.ar    1  UNL1        0.1021
     21 N          62.9005   81.6827   11.5598 N.ar    1  UNL1       -0.2101
     22 C          62.8131   82.8508   12.4968 C.ar    1  UNL1        0.2264
     23 O          62.1907   82.6810   13.8510 O.3     1  UNL1       -0.4561
     24 C          61.5488   81.3774   14.2232 C.3     1  UNL1        0.2542
     25 C          59.5840   89.6776    7.3283 C.2     1  UNL1        0.2414
     26 O          59.5334   90.6096    8.5025 O.2     1  UNL1       -0.2733
     27 N          60.2416   88.3363    7.4632 N.am    1  UNL1       -0.2682
     28 H          60.2748   87.7246    6.6925 H       1  UNL1        0.1563
     29 C          58.9770   90.0870    6.0191 C.3     1  UNL1        0.1319
     30 C          59.8587   90.5327    4.8903 C.3     1  UNL1        0.0270
     31 C          56.7995   91.1378    5.0681 C.3     1  UNL1        0.0862
     32 N          57.4883   90.0508    5.8387 N.3     1  UNL1       -0.2902
     33 H          57.2701   89.1726    5.3681 H       1  UNL1        0.1237
     34 C          63.2996   89.3886   11.5303 C.1     1  UNL1       -0.0404
     35 C          64.2216   90.3241   12.2547 C.1     1  UNL1       -0.0583
     36 C          65.1436   91.2597   12.9791 C.ar    1  UNL1        0.0420
     37 C          65.1941   92.7090   12.5959 C.ar    1  UNL1        0.0083
     38 C          66.1160   93.6445   13.3203 C.ar    1  UNL1        0.0018
     39 C          66.9874   93.1307   14.4279 C.ar    1  UNL1        0.0137
     40 C          67.9094   94.0663   15.1523 C.ar    1  UNL1        0.0594
     41 C          67.9600   95.5156   14.7692 C.3     1  UNL1        0.0521
     42 N          68.7808   93.5525   16.2598 N.ar    1  UNL1       -0.2481
     43 C          68.7303   92.1030   16.6429 C.ar    1  UNL1        0.0984
     44 C          67.8083   91.1675   15.9185 C.ar    1  UNL1        0.0207
     45 C          66.9369   91.6814   14.8110 C.ar    1  UNL1        0.0033
     46 C          66.0150   90.7459   14.0866 C.ar    1  UNL1        0.0083
@<TRIPOS>BOND
     1    31    32    1
     2    32    29    1
     3    29    30    1
     4    29    25    1
     5    25    26    2
     6    25    27   am
     7    27     1    1
     8     1     2   ar
     9     2     3   ar
    10     3     4   ar
    11     4     7    1
    12     7     8   ar
    13     8    17    1
    14    17    18   ar
    15    18    19   ar
    16    19    20   ar
    17    20    21   ar
    18    21    22   ar
    19    22    23    1
    20    23    24    1
    21     8     9   ar
    22     9    10   ar
    23    10    11   ar
    24    11    12   ar
    25    12    13    1
    26    12    14   ar
    27    14    15   ar
    28    15    16   ar
    29     4     5   ar
    30     5    34    1
    31    34    35    3
    32    35    36    1
    33    36    37   ar
    34    37    38   ar
    35    38    39   ar
    36    39    40   ar
    37    40    41    1
    38    40    42   ar
    39    42    43   ar
    40    43    44   ar
    41    44    45   ar
    42    45    46   ar
    43     5     6   ar
    44     6     1   ar
    45    16     7   ar
    46    46    36   ar
    47    22    17   ar
    48    16    10   ar
    49    45    39   ar
    50    32    33    1
    51    27    28    1
@<TRIPOS>MOLECULE
*****
 46 51 0 0 0
SMALL
GASTEIGER

@<TRIPOS>ATOM
      1 C          59.1081   89.0315    7.0441 C.ar    1  UNL1        0.1348
      2 C          58.8722   87.5550    7.1636 C.ar    1  UNL1        0.0346
      3 C          59.6227   86.7560    8.1875 C.ar    1  UNL1        0.0065
      4 C          60.6092   87.4335    9.0918 C.ar    1  UNL1        0.0432
      5 C          60.8451   88.9100    8.9724 C.ar    1  UNL1        0.1256
      6 N          60.0945   89.7090    7.9485 N.ar    1  UNL1       -0.2222
      7 C          61.3597   86.6345   10.1157 C.ar    1  UNL1        0.0851
      8 C          61.3253   86.8488   11.5999 C.ar    1  UNL1        0.1035
      9 N          62.2208   85.8276   12.2366 N.ar    1  UNL1       -0.2263
     10 C          62.8086   84.9822   11.1459 C.ar    1  UNL1        0.1486
     11 C          63.7597   83.8227   11.1769 C.ar    1  UNL1        0.0488
     12 C          64.1787   83.1619    9.8971 C.ar    1  UNL1        0.0622
     13 CL         65.1298   82.0024    9.9281 Cl      1  UNL1       -0.0821
     14 C          63.6465   83.6605    8.5863 C.ar    1  UNL1        0.0305
     15 C          62.6954   84.8200    8.5553 C.ar    1  UNL1        0.0823
     16 N          62.2765   85.4808    9.8351 N.ar    1  UNL1       -0.2887
     17 C          60.5343   87.8997   12.3209 C.ar    1  UNL1        0.0723
     18 C          59.1103   88.1657   11.9313 C.ar    1  UNL1        0.0078
     19 C          58.3193   89.2167   12.6523 C.ar    1  UNL1        0.0209
     20 C          58.9522   90.0017   13.7628 C.ar    1  UNL1        0.1021
     21 N          60.3761   89.7356   14.1523 N.ar    1  UNL1       -0.2101
     22 C          61.1671   88.6847   13.4314 C.ar    1  UNL1        0.2264
     23 O          62.5911   88.4187   13.8210 O.3     1  UNL1       -0.4561
     24 C          63.0181   88.5707   15.2509 C.3     1  UNL1        0.2542
     25 C          59.0686   90.8814    5.2204 C.2     1  UNL1        0.2414
     26 O          60.5303   91.1334    5.4443 O.2     1  UNL1       -0.2733
     27 N          58.3575   89.8305    6.0203 N.am    1  UNL1       -0.2682
     28 H          57.3982   89.6652    5.8734 H       1  UNL1        0.1563
     29 C          58.3181   91.6804    4.1965 C.3     1  UNL1        0.1319
     30 C          56.8652   91.9905    4.4047 C.3     1  UNL1        0.0270
     31 C          60.0287   93.2753    3.0651 C.3     1  UNL1        0.0862
     32 N          59.0203   92.1694    2.9646 N.3     1  UNL1       -0.2902
     33 H          59.5034   91.3660    2.5626 H       1  UNL1        0.1237
     34 C          61.8316   89.5875    9.8768 C.1     1  UNL1       -0.0404
     35 C          62.8180   90.2650   10.7811 C.1     1  UNL1       -0.0583
     36 C          63.8044   90.9426   11.6855 C.ar    1  UNL1        0.0420
     37 C          64.2384   90.2746   12.9565 C.ar    1  UNL1        0.0083
     38 C          65.2249   90.9522   13.8608 C.ar    1  UNL1        0.0018
     39 C          65.7773   92.2977   13.4941 C.ar    1  UNL1        0.0137
     40 C          66.7638   92.9752   14.3985 C.ar    1  UNL1        0.0594
     41 C          67.1978   92.3072   15.6695 C.3     1  UNL1        0.0521
     42 N          67.3162   94.3207   14.0319 N.ar    1  UNL1       -0.2481
     43 C          66.8822   94.9887   12.7608 C.ar    1  UNL1        0.0984
     44 C          65.8957   94.3111   11.8565 C.ar    1  UNL1        0.0207
     45 C          65.3433   92.9656   12.2232 C.ar    1  UNL1        0.0033
     46 C          64.3569   92.2881   11.3189 C.ar    1  UNL1        0.0083
@<TRIPOS>BOND
     1    31    32    1
     2    32    29    1
     3    29    30    1
     4    29    25    1
     5    25    26    2
     6    25    27   am
     7    27     1    1
     8     1     2   ar
     9     2     3   ar
    10     3     4   ar
    11     4     7    1
    12     7     8   ar
    13     8    17    1
    14    17    18   ar
    15    18    19   ar
    16    19    20   ar
    17    20    21   ar
    18    21    22   ar
    19    22    23    1
    20    23    24    1
    21     8     9   ar
    22     9    10   ar
    23    10    11   ar
    24    11    12   ar
    25    12    13    1
    26    12    14   ar
    27    14    15   ar
    28    15    16   ar
    29     4     5   ar
    30     5    34    1
    31    34    35    3
    32    35    36    1
    33    36    37   ar
    34    37    38   ar
    35    38    39   ar
    36    39    40   ar
    37    40    41    1
    38    40    42   ar
    39    42    43   ar
    40    43    44   ar
    41    44    45   ar
    42    45    46   ar
    43     5     6   ar
    44     6     1   ar
    45    16     7   ar
    46    46    36   ar
    47    22    17   ar
    48    16    10   ar
    49    45    39   ar
    50    32    33    1
    51    27    28    1
@<TRIPOS>MOLECULE
*****
 46 51 0 0 0
SMALL
GASTEIGER

@<TRIPOS>ATOM
      1 C          64.4646   90.2908   13.4522 C.ar    1  UNL1        0.1348
      2 C          63.7419   91.1185   12.4311 C.ar    1  UNL1        0.0346
      3 C          62.8509   90.4558   11.4227 C.ar    1  UNL1        0.0065
      4 C          62.6825   88.9654   11.4354 C.ar    1  UNL1        0.0432
      5 C          63.4052   88.1377   12.4565 C.ar    1  UNL1        0.1256
      6 N          64.2962   88.8004   13.4649 N.ar    1  UNL1       -0.2222
      7 C          61.7915   88.3027   10.4270 C.ar    1  UNL1        0.0851
      8 C          60.3538   88.6400   10.1642 C.ar    1  UNL1        0.1035
      9 N          59.8554   87.7320    9.0791 N.ar    1  UNL1       -0.2263
     10 C          60.9852   86.8336    8.6713 C.ar    1  UNL1        0.1486
     11 C          61.0791   85.7399    7.6491 C.ar    1  UNL1        0.0488
     12 C          62.3694   84.9989    7.4598 C.ar    1  UNL1        0.0622
     13 CL         62.4633   83.9052    6.4376 Cl      1  UNL1       -0.0821
     14 C          63.5660   85.3515    8.2929 C.ar    1  UNL1        0.0305
     15 C          63.4722   86.4452    9.3151 C.ar    1  UNL1        0.0823
     16 N          62.1818   87.1862    9.5044 N.ar    1  UNL1       -0.2887
     17 C          59.5546   89.6992   10.8637 C.ar    1  UNL1        0.0723
     18 C          59.4817   91.0841   10.2916 C.ar    1  UNL1        0.0078
     19 C          58.6825   92.1434   10.9911 C.ar    1  UNL1        0.0209
     20 C          57.9562   91.8179   12.2625 C.ar    1  UNL1        0.1021
     21 N          58.0291   90.4332   12.8345 N.ar    1  UNL1       -0.2101
     22 C          58.8283   89.3739   12.1350 C.ar    1  UNL1        0.2264
     23 O          58.9011   87.9891   12.7071 O.3     1  UNL1       -0.4561
     24 C          58.4541   87.7355   14.1163 C.3     1  UNL1        0.2542
     25 C          66.4820   91.8323   14.0035 C.2     1  UNL1        0.2414
     26 O          66.7174   92.0484   12.5378 O.2     1  UNL1       -0.2733
     27 N          65.3556   90.9536   14.4606 N.am    1  UNL1       -0.2682
     28 H          65.2011   90.8118   15.4225 H       1  UNL1        0.1563
     29 C          67.3730   92.4951   15.0119 C.3     1  UNL1        0.1319
     30 C          66.8698   92.7558   16.4007 C.3     1  UNL1        0.0270
     31 C          69.6289   93.6354   15.6124 C.3     1  UNL1        0.0862
     32 N          68.7671   92.8970   14.6314 N.3     1  UNL1       -0.2902
     33 H          69.2647   92.0403   14.3889 H       1  UNL1        0.1237
     34 C          63.2368   86.6472   12.4692 C.1     1  UNL1       -0.0404
     35 C          63.0684   85.1567   12.4819 C.1     1  UNL1       -0.0583
     36 C          62.9000   83.6662   12.4946 C.ar    1  UNL1        0.0420
     37 C          62.5532   82.9615   13.7725 C.ar    1  UNL1        0.0083
     38 C          62.3848   81.4711   13.7852 C.ar    1  UNL1        0.0018
     39 C          62.5633   80.6853   12.5200 C.ar    1  UNL1        0.0137
     40 C          62.3950   79.1948   12.5327 C.ar    1  UNL1        0.0594
     41 C          62.0481   78.4901   13.8106 C.3     1  UNL1        0.0521
     42 N          62.5735   78.4091   11.2675 N.ar    1  UNL1       -0.2481
     43 C          62.9204   79.1139    9.9895 C.ar    1  UNL1        0.0984
     44 C          63.0887   80.6043    9.9769 C.ar    1  UNL1        0.0207
     45 C          62.9102   81.3900   11.2421 C.ar    1  UNL1        0.0033
     46 C          63.0786   82.8805   11.2294 C.ar    1  UNL1        0.0083
@<TRIPOS>BOND
     1    31    32    1
     2    32    29    1
     3    29    30    1
     4    29    25    1
     5    25    26    2
     6    25    27   am
     7    27     1    1
     8     1     2   ar
     9     2     3   ar
    10     3     4   ar
    11     4     7    1
    12     7     8   ar
    13     8    17    1
    14    17    18   ar
    15    18    19   ar
    16    19    20   ar
    17    20    21   ar
    18    21    22   ar
    19    22    23    1
    20    23    24    1
    21     8     9   ar
    22     9    10   ar
    23    10    11   ar
    24    11    12   ar
    25    12    13    1
    26    12    14   ar
    27    14    15   ar
    28    15    16   ar
    29     4     5   ar
    30     5    34    1
    31    34    35    3
    32    35    36    1
    33    36    37   ar
    34    37    38   ar
    35    38    39   ar
    36    39    40   ar
    37    40    41    1
    38    40    42   ar
    39    42    43   ar
    40    43    44   ar
    41    44    45   ar
    42    45    46   ar
    43     5     6   ar
    44     6     1   ar
    45    16     7   ar
    46    46    36   ar
    47    22    17   ar
    48    16    10   ar
    49    45    39   ar
    50    32    33    1
    51    27    28    1
@<TRIPOS>MOLECULE
*****
 46 51 0 0 0
SMALL
GASTEIGER

@<TRIPOS>ATOM
      1 C          59.7425   89.8673    7.8815 C.ar    1  UNL1        0.1348
      2 C          59.4982   88.3973    8.0522 C.ar    1  UNL1        0.0346
      3 C          60.2873   87.6181    9.0622 C.ar    1  UNL1        0.0065
      4 C          61.3208   88.3090    9.9015 C.ar    1  UNL1        0.0432
      5 C          61.5652   89.7791    9.7308 C.ar    1  UNL1        0.1256
      6 N          60.7761   90.5582    8.7207 N.ar    1  UNL1       -0.2222
      7 C          62.1100   87.5299   10.9115 C.ar    1  UNL1        0.0851
      8 C          62.7436   86.1883   10.6910 C.ar    1  UNL1        0.1035
      9 N          63.4293   85.7847   11.9626 N.ar    1  UNL1       -0.2263
     10 C          63.2195   86.8770   12.9691 C.ar    1  UNL1        0.1486
     11 C          63.6656   87.0288   14.3931 C.ar    1  UNL1        0.0488
     12 C          63.2962   88.2591   15.1676 C.ar    1  UNL1        0.0622
     13 CL         63.7423   88.4110   16.5917 Cl      1  UNL1       -0.0821
     14 C          62.4809   89.3377   14.5181 C.ar    1  UNL1        0.0305
     15 C          62.0348   89.1859   13.0940 C.ar    1  UNL1        0.0823
     16 N          62.4041   87.9555   12.3195 N.ar    1  UNL1       -0.2887
     17 C          62.6993   85.3903    9.4216 C.ar    1  UNL1        0.0723
     18 C          61.9127   85.8923    8.2471 C.ar    1  UNL1        0.0078
     19 C          61.8684   85.0943    6.9778 C.ar    1  UNL1        0.0209
     20 C          62.6107   83.7943    6.8829 C.ar    1  UNL1        0.1021
     21 N          63.3972   83.2923    8.0573 N.ar    1  UNL1       -0.2101
     22 C          63.4415   84.0903    9.3266 C.ar    1  UNL1        0.2264
     23 O          64.2282   83.5882   10.5010 O.3     1  UNL1       -0.4561
     24 C          63.7997   82.3387   11.2117 C.3     1  UNL1        0.2542
     25 C          59.5983   91.0809    5.5888 C.2     1  UNL1        0.2414
     26 O          61.0326   90.7362    5.3161 O.2     1  UNL1       -0.2733
     27 N          58.9534   90.6465    6.8714 N.am    1  UNL1       -0.2682
     28 H          58.0121   90.8727    7.0504 H       1  UNL1        0.1563
     29 C          58.8092   91.8601    4.5788 C.3     1  UNL1        0.1319
     30 C          59.4427   92.2616    3.2797 C.3     1  UNL1        0.0270
     31 C          56.3261   91.1784    4.9244 C.3     1  UNL1        0.0862
     32 N          57.3866   92.2377    4.8678 N.3     1  UNL1       -0.2902
     33 H          57.3844   92.7053    5.7742 H       1  UNL1        0.1237
     34 C          62.5988   90.4700   10.5701 C.1     1  UNL1       -0.0404
     35 C          63.6323   91.1610   11.4093 C.1     1  UNL1       -0.0583
     36 C          64.6659   91.8520   12.2486 C.ar    1  UNL1        0.0420
     37 C          65.0291   93.2797   11.9664 C.ar    1  UNL1        0.0083
     38 C          66.0626   93.9706   12.8057 C.ar    1  UNL1        0.0018
     39 C          66.7329   93.2338   13.9272 C.ar    1  UNL1        0.0137
     40 C          67.7665   93.9248   14.7665 C.ar    1  UNL1        0.0594
     41 C          68.1297   95.3525   14.4843 C.3     1  UNL1        0.0521
     42 N          68.4368   93.1880   15.8880 N.ar    1  UNL1       -0.2481
     43 C          68.0735   91.7602   16.1703 C.ar    1  UNL1        0.0984
     44 C          67.0400   91.0693   15.3310 C.ar    1  UNL1        0.0207
     45 C          66.3697   91.8061   14.2094 C.ar    1  UNL1        0.0033
     46 C          65.3362   91.1152   13.3701 C.ar    1  UNL1        0.0083
@<TRIPOS>BOND
     1    31    32    1
     2    32    29    1
     3    29    30    1
     4    29    25    1
     5    25    26    2
     6    25    27   am
     7    27     1    1
     8     1     2   ar
     9     2     3   ar
    10     3     4   ar
    11     4     7    1
    12     7     8   ar
    13     8    17    1
    14    17    18   ar
    15    18    19   ar
    16    19    20   ar
    17    20    21   ar
    18    21    22   ar
    19    22    23    1
    20    23    24    1
    21     8     9   ar
    22     9    10   ar
    23    10    11   ar
    24    11    12   ar
    25    12    13    1
    26    12    14   ar
    27    14    15   ar
    28    15    16   ar
    29     4     5   ar
    30     5    34    1
    31    34    35    3
    32    35    36    1
    33    36    37   ar
    34    37    38   ar
    35    38    39   ar
    36    39    40   ar
    37    40    41    1
    38    40    42   ar
    39    42    43   ar
    40    43    44   ar
    41    44    45   ar
    42    45    46   ar
    43     5     6   ar
    44     6     1   ar
    45    16     7   ar
    46    46    36   ar
    47    22    17   ar
    48    16    10   ar
    49    45    39   ar
    50    32    33    1
    51    27    28    1
