@<TRIPOS>MOLECULE
*****
 19 21 0 0 0
SMALL
GASTEIGER

@<TRIPOS>ATOM
      1 C          63.9708   91.1941   12.1911 C.ar    1  UNL1        0.1392
      2 C          63.5712   91.5235   10.7833 C.ar    1  UNL1        0.0384
      3 C          62.7924   90.5302    9.9728 C.ar    1  UNL1        0.0207
      4 C          62.4133   89.2075   10.5702 C.ar    1  UNL1        0.0657
      5 C          62.8129   88.8782   11.9779 C.ar    1  UNL1        0.0207
      6 C          63.5917   89.8715   12.7884 C.ar    1  UNL1        0.0384
      7 N          61.6345   88.2142    9.7597 N.ar    1  UNL1       -0.2864
      8 C          60.2968   88.4505    9.1237 C.ar    1  UNL1        0.1022
      9 C          59.8922   87.1925    8.4139 C.ar    1  UNL1        0.1196
     10 N          60.9800   86.1787    8.6112 N.ar    1  UNL1       -0.2220
     11 C          62.0568   86.8101    9.4430 C.ar    1  UNL1        0.1828
     12 O          64.7496   92.1875   13.0015 O.3     1  UNL1       -0.4690
     13 C          66.2271   92.3351   12.7890 C.3     1  UNL1        0.2508
     14 C          67.7738   94.4511    9.1311 C.ar    1  UNL1        0.0207
     15 C          67.9929   92.9761    9.2932 C.ar    1  UNL1        0.0029
     16 C          67.4774   92.2708   10.5125 C.ar    1  UNL1        0.0185
     17 C          66.7426   93.0404   11.5697 C.ar    1  UNL1        0.1026
     18 N          66.5235   94.5154   11.4077 N.ar    1  UNL1       -0.2445
     19 C          67.0391   95.2208   10.1884 C.ar    1  UNL1        0.0986
@<TRIPOS>BOND
     1    14    15   ar
     2    15    16   ar
     3    16    17   ar
     4    17    13    1
     5    13    12    1
     6    12     1    1
     7     1     2   ar
     8     2     3   ar
     9     3     4   ar
    10     4     7    1
    11     7     8   ar
    12     8     9   ar
    13     9    10   ar
    14    10    11   ar
    15     4     5   ar
    16     5     6   ar
    17    17    18   ar
    18    18    19   ar
    19    19    14   ar
    20     6     1   ar
    21    11     7   ar
@<TRIPOS>MOLECULE
*****
 19 21 0 0 0
SMALL
GASTEIGER

@<TRIPOS>ATOM
      1 C          63.0426   89.8179   12.5568 C.ar    1  UNL1        0.1392
      2 C          63.5507   91.0777   11.9205 C.ar    1  UNL1        0.0384
      3 C          64.7282   91.7945   12.5119 C.ar    1  UNL1        0.0207
      4 C          65.3975   91.2514   13.7397 C.ar    1  UNL1        0.0657
      5 C          64.8894   89.9917   14.3758 C.ar    1  UNL1        0.0207
      6 C          63.7119   89.2749   13.7844 C.ar    1  UNL1        0.0384
      7 N          66.5750   91.9682   14.3311 N.ar    1  UNL1       -0.2864
      8 C          66.5569   92.8302   15.5585 C.ar    1  UNL1        0.1022
      9 C          67.9480   93.3436   15.7850 C.ar    1  UNL1        0.1196
     10 N          68.8259   92.7988   14.6975 N.ar    1  UNL1       -0.2220
     11 C          67.9773   91.9488   13.7989 C.ar    1  UNL1        0.1828
     12 O          61.8651   89.1011   11.9653 O.3     1  UNL1       -0.4690
     13 C          61.4433   89.3884   10.5548 C.3     1  UNL1        0.2508
     14 C          60.5152   85.9952    7.7486 C.ar    1  UNL1        0.0207
     15 C          61.7664   85.9639    8.5753 C.ar    1  UNL1        0.0029
     16 C          62.0758   87.0950    9.5107 C.ar    1  UNL1        0.0185
     17 C          61.1340   88.2573    9.6194 C.ar    1  UNL1        0.1026
     18 N          59.8828   88.2886    8.7927 N.ar    1  UNL1       -0.2445
     19 C          59.5734   87.1575    7.8573 C.ar    1  UNL1        0.0986
@<TRIPOS>BOND
     1    14    15   ar
     2    15    16   ar
     3    16    17   ar
     4    17    13    1
     5    13    12    1
     6    12     1    1
     7     1     2   ar
     8     2     3   ar
     9     3     4   ar
    10     4     7    1
    11     7     8   ar
    12     8     9   ar
    13     9    10   ar
    14    10    11   ar
    15     4     5   ar
    16     5     6   ar
    17    17    18   ar
    18    18    19   ar
    19    19    14   ar
    20     6     1   ar
    21    11     7   ar
@<TRIPOS>MOLECULE
*****
 19 21 0 0 0
SMALL
GASTEIGER

@<TRIPOS>ATOM
      1 C          62.8665   89.9792   12.7998 C.ar    1  UNL1        0.1392
      2 C          63.4995   91.0914   12.0172 C.ar    1  UNL1        0.0384
      3 C          64.7374   91.7624   12.5344 C.ar    1  UNL1        0.0207
      4 C          65.3422   91.3212   13.8343 C.ar    1  UNL1        0.0657
      5 C          64.7091   90.2091   14.6169 C.ar    1  UNL1        0.0207
      6 C          63.4713   89.5381   14.0997 C.ar    1  UNL1        0.0384
      7 N          66.5800   91.9922   14.3516 N.ar    1  UNL1       -0.2864
      8 C          66.6880   92.7867   15.6193 C.ar    1  UNL1        0.1022
      9 C          68.1019   93.2720   15.7431 C.ar    1  UNL1        0.1196
     10 N          68.8678   92.7774   14.5520 N.ar    1  UNL1       -0.2220
     11 C          67.9272   91.9864   13.6919 C.ar    1  UNL1        0.1828
     12 O          61.6287   89.3082   12.2826 O.3     1  UNL1       -0.4690
     13 C          61.6155   88.7194   10.9031 C.3     1  UNL1        0.2508
     14 C          62.9402   84.4673   10.2589 C.ar    1  UNL1        0.0207
     15 C          62.7635   85.3839    9.0848 C.ar    1  UNL1        0.0029
     16 C          62.3219   86.8013    9.2995 C.ar    1  UNL1        0.0185
     17 C          62.0570   87.3020   10.6884 C.ar    1  UNL1        0.1026
     18 N          62.2337   86.3855   11.8625 N.ar    1  UNL1       -0.2445
     19 C          62.6753   84.9681   11.6477 C.ar    1  UNL1        0.0986
@<TRIPOS>BOND
     1    14    15   ar
     2    15    16   ar
     3    16    17   ar
     4    17    13    1
     5    13    12    1
     6    12     1    1
     7     1     2   ar
     8     2     3   ar
     9     3     4   ar
    10     4     7    1
    11     7     8   ar
    12     8     9   ar
    13     9    10   ar
    14    10    11   ar
    15     4     5   ar
    16     5     6   ar
    17    17    18   ar
    18    18    19   ar
    19    19    14   ar
    20     6     1   ar
    21    11     7   ar
@<TRIPOS>MOLECULE
*****
 19 21 0 0 0
SMALL
GASTEIGER

@<TRIPOS>ATOM
      1 C          62.9665   90.0387   11.7683 C.ar    1  UNL1        0.1392
      2 C          62.9514   90.6318   10.3906 C.ar    1  UNL1        0.0384
      3 C          63.9026   91.7371   10.0394 C.ar    1  UNL1        0.0207
      4 C          64.8689   92.2495   11.0660 C.ar    1  UNL1        0.0657
      5 C          64.8840   91.6564   12.4437 C.ar    1  UNL1        0.0207
      6 C          63.9328   90.5510   12.7948 C.ar    1  UNL1        0.0384
      7 N          65.8201   93.3548   10.7149 N.ar    1  UNL1       -0.2864
      8 C          65.6405   94.8085   11.0381 C.ar    1  UNL1        0.1022
      9 C          66.8274   95.5528   10.5018 C.ar    1  UNL1        0.1196
     10 N          67.7405   94.5590    9.8471 N.ar    1  UNL1       -0.2220
     11 C          67.1180   93.2006    9.9788 C.ar    1  UNL1        0.1828
     12 O          62.0153   88.9333   12.1195 O.3     1  UNL1       -0.4690
     13 C          62.2439   87.5497   11.5872 C.3     1  UNL1        0.2508
     14 C          60.2341   86.2434    7.7788 C.ar    1  UNL1        0.0207
     15 C          61.6256   85.7780    8.0903 C.ar    1  UNL1        0.0029
     16 C          62.2955   86.2135    9.3597 C.ar    1  UNL1        0.0185
     17 C          61.5739   87.1143   10.3178 C.ar    1  UNL1        0.1026
     18 N          60.1824   87.5796   10.0063 N.ar    1  UNL1       -0.2445
     19 C          59.5125   87.1442    8.7368 C.ar    1  UNL1        0.0986
@<TRIPOS>BOND
     1    14    15   ar
     2    15    16   ar
     3    16    17   ar
     4    17    13    1
     5    13    12    1
     6    12     1    1
     7     1     2   ar
     8     2     3   ar
     9     3     4   ar
    10     4     7    1
    11     7     8   ar
    12     8     9   ar
    13     9    10   ar
    14    10    11   ar
    15     4     5   ar
    16     5     6   ar
    17    17    18   ar
    18    18    19   ar
    19    19    14   ar
    20     6     1   ar
    21    11     7   ar
@<TRIPOS>MOLECULE
*****
 19 21 0 0 0
SMALL
GASTEIGER

@<TRIPOS>ATOM
      1 C          63.4043   90.0231   12.3803 C.ar    1  UNL1        0.1392
      2 C          62.7437   90.8555   11.3216 C.ar    1  UNL1        0.0384
      3 C          61.8904   90.2002   10.2764 C.ar    1  UNL1        0.0207
      4 C          61.6978   88.7126   10.2898 C.ar    1  UNL1        0.0657
      5 C          62.3585   87.8804   11.3485 C.ar    1  UNL1        0.0207
      6 C          63.2117   88.5357   12.3938 C.ar    1  UNL1        0.0384
      7 N          60.8445   88.0574    9.2446 N.ar    1  UNL1       -0.2864
      8 C          60.8042   86.5910    8.9315 C.ar    1  UNL1        0.1022
      9 C          59.8165   86.3807    7.8223 C.ar    1  UNL1        0.1196
     10 N          59.2464   87.7172    7.4499 N.ar    1  UNL1       -0.2220
     11 C          59.8817   88.7535    8.3288 C.ar    1  UNL1        0.1828
     12 O          64.2576   90.6784   13.4256 O.3     1  UNL1       -0.4690
     13 C          65.2146   91.7666   13.0385 C.3     1  UNL1        0.2508
     14 C          68.6366   92.8273   15.7615 C.ar    1  UNL1        0.0207
     15 C          67.2294   92.8540   16.2801 C.ar    1  UNL1        0.0029
     16 C          66.0888   92.5005   15.3724 C.ar    1  UNL1        0.0185
     17 C          66.3553   92.1202   13.9461 C.ar    1  UNL1        0.1026
     18 N          67.7625   92.0935   13.4275 N.ar    1  UNL1       -0.2445
     19 C          68.9032   92.4470   14.3352 C.ar    1  UNL1        0.0986
@<TRIPOS>BOND
     1    14    15   ar
     2    15    16   ar
     3    16    17   ar
     4    17    13    1
     5    13    12    1
     6    12     1    1
     7     1     2   ar
     8     2     3   ar
     9     3     4   ar
    10     4     7    1
    11     7     8   ar
    12     8     9   ar
    13     9    10   ar
    14    10    11   ar
    15     4     5   ar
    16     5     6   ar
    17    17    18   ar
    18    18    19   ar
    19    19    14   ar
    20     6     1   ar
    21    11     7   ar
@<TRIPOS>MOLECULE
*****
 19 21 0 0 0
SMALL
GASTEIGER

@<TRIPOS>ATOM
      1 C          63.8982   90.0279   13.3862 C.ar    1  UNL1        0.1392
      2 C          63.2376   89.2319   12.2998 C.ar    1  UNL1        0.0384
      3 C          63.1662   87.7372   12.4028 C.ar    1  UNL1        0.0207
      4 C          63.7554   87.0384   13.5922 C.ar    1  UNL1        0.0657
      5 C          64.4160   87.8343   14.6785 C.ar    1  UNL1        0.0207
      6 C          64.4874   89.3291   14.5755 C.ar    1  UNL1        0.0384
      7 N          63.6840   85.5436   13.6953 N.ar    1  UNL1       -0.2864
      8 C          64.0755   84.7223   14.8879 C.ar    1  UNL1        0.1022
      9 C          63.8420   83.2788   14.5535 C.ar    1  UNL1        0.1196
     10 N          63.3062   83.2080   13.1542 N.ar    1  UNL1       -0.2220
     11 C          63.2086   84.6077   12.6238 C.ar    1  UNL1        0.1828
     12 O          63.9696   91.5226   13.2831 O.3     1  UNL1       -0.4690
     13 C          65.2510   92.1858   12.8730 C.3     1  UNL1        0.2508
     14 C          68.5863   92.6739   15.8542 C.ar    1  UNL1        0.0207
     15 C          67.1585   92.7579   16.3059 C.ar    1  UNL1        0.0029
     16 C          66.0467   92.5952   15.3121 C.ar    1  UNL1        0.0185
     17 C          66.3628   92.3485   13.8668 C.ar    1  UNL1        0.1026
     18 N          67.7907   92.2645   13.4151 N.ar    1  UNL1       -0.2445
     19 C          68.9025   92.4272   14.4088 C.ar    1  UNL1        0.0986
@<TRIPOS>BOND
     1    14    15   ar
     2    15    16   ar
     3    16    17   ar
     4    17    13    1
     5    13    12    1
     6    12     1    1
     7     1     2   ar
     8     2     3   ar
     9     3     4   ar
    10     4     7    1
    11     7     8   ar
    12     8     9   ar
    13     9    10   ar
    14    10    11   ar
    15     4     5   ar
    16     5     6   ar
    17    17    18   ar
    18    18    19   ar
    19    19    14   ar
    20     6     1   ar
    21    11     7   ar
@<TRIPOS>MOLECULE
*****
 19 21 0 0 0
SMALL
GASTEIGER

@<TRIPOS>ATOM
      1 C          62.9518   90.0441   11.7851 C.ar    1  UNL1        0.1392
      2 C          62.9877   90.5840   10.3860 C.ar    1  UNL1        0.0384
      3 C          63.9466   91.6812   10.0300 C.ar    1  UNL1        0.0207
      4 C          64.8696   92.2384   11.0729 C.ar    1  UNL1        0.0657
      5 C          64.8337   91.6984   12.4719 C.ar    1  UNL1        0.0207
      6 C          63.8748   90.6012   12.8279 C.ar    1  UNL1        0.0384
      7 N          65.8285   93.3355   10.7168 N.ar    1  UNL1       -0.2864
      8 C          65.6792   94.7858   11.0694 C.ar    1  UNL1        0.1022
      9 C          66.8635   95.5217   10.5161 C.ar    1  UNL1        0.1196
     10 N          67.7447   94.5261    9.8216 N.ar    1  UNL1       -0.2220
     11 C          67.1051   93.1749    9.9456 C.ar    1  UNL1        0.1828
     12 O          61.9929   88.9469   12.1412 O.3     1  UNL1       -0.4690
     13 C          61.8639   87.7458   11.2521 C.3     1  UNL1        0.2508
     14 C          63.6259   83.8052   12.5240 C.ar    1  UNL1        0.0207
     15 C          62.8896   83.9121   11.2215 C.ar    1  UNL1        0.0029
     16 C          62.3022   85.2256   10.7976 C.ar    1  UNL1        0.0185
     17 C          62.4512   86.4322   11.6760 C.ar    1  UNL1        0.1026
     18 N          63.1875   86.3254   12.9785 N.ar    1  UNL1       -0.2445
     19 C          63.7748   85.0119   13.4024 C.ar    1  UNL1        0.0986
@<TRIPOS>BOND
     1    14    15   ar
     2    15    16   ar
     3    16    17   ar
     4    17    13    1
     5    13    12    1
     6    12     1    1
     7     1     2   ar
     8     2     3   ar
     9     3     4   ar
    10     4     7    1
    11     7     8   ar
    12     8     9   ar
    13     9    10   ar
    14    10    11   ar
    15     4     5   ar
    16     5     6   ar
    17    17    18   ar
    18    18    19   ar
    19    19    14   ar
    20     6     1   ar
    21    11     7   ar
@<TRIPOS>MOLECULE
*****
 19 21 0 0 0
SMALL
GASTEIGER

@<TRIPOS>ATOM
      1 C          63.5039   83.9871   10.7598 C.ar    1  UNL1        0.1392
      2 C          62.4860   84.7194   11.5830 C.ar    1  UNL1        0.0384
      3 C          61.5919   85.7370   10.9387 C.ar    1  UNL1        0.0207
      4 C          61.7157   86.0223    9.4713 C.ar    1  UNL1        0.0657
      5 C          62.7336   85.2901    8.6481 C.ar    1  UNL1        0.0207
      6 C          63.6277   84.2725    9.2924 C.ar    1  UNL1        0.0384
      7 N          60.8216   87.0399    8.8270 N.ar    1  UNL1       -0.2864
      8 C          60.8200   88.5140    9.1047 C.ar    1  UNL1        0.1022
      9 C          59.7695   89.1472    8.2413 C.ar    1  UNL1        0.1196
     10 N          59.1219   88.0645    7.4300 N.ar    1  UNL1       -0.2220
     11 C          59.7720   86.7621    7.7919 C.ar    1  UNL1        0.1828
     12 O          64.3981   82.9695   11.4040 O.3     1  UNL1       -0.4690
     13 C          64.1362   82.5257   12.8127 C.3     1  UNL1        0.2508
     14 C          63.6265   85.5816   16.0765 C.ar    1  UNL1        0.0207
     15 C          64.8220   85.6420   15.1725 C.ar    1  UNL1        0.0029
     16 C          64.9919   84.6234   14.0846 C.ar    1  UNL1        0.0185
     17 C          63.9663   83.5444   13.9006 C.ar    1  UNL1        0.1026
     18 N          62.7708   83.4839   14.8046 N.ar    1  UNL1       -0.2445
     19 C          62.6009   84.5025   15.8925 C.ar    1  UNL1        0.0986
@<TRIPOS>BOND
     1    14    15   ar
     2    15    16   ar
     3    16    17   ar
     4    17    13    1
     5    13    12    1
     6    12     1    1
     7     1     2   ar
     8     2     3   ar
     9     3     4   ar
    10     4     7    1
    11     7     8   ar
    12     8     9   ar
    13     9    10   ar
    14    10    11   ar
    15     4     5   ar
    16     5     6   ar
    17    17    18   ar
    18    18    19   ar
    19    19    14   ar
    20     6     1   ar
    21    11     7   ar
@<TRIPOS>MOLECULE
*****
 19 21 0 0 0
SMALL
GASTEIGER

@<TRIPOS>ATOM
      1 C          63.6822   84.0847   10.1230 C.ar    1  UNL1        0.1392
      2 C          62.7637   84.7677   11.0926 C.ar    1  UNL1        0.0384
      3 C          61.7575   85.7640   10.5978 C.ar    1  UNL1        0.0207
      4 C          61.6698   86.0774    9.1335 C.ar    1  UNL1        0.0657
      5 C          62.5882   85.3944    8.1640 C.ar    1  UNL1        0.0207
      6 C          63.5944   84.3981    8.6588 C.ar    1  UNL1        0.0384
      7 N          60.6636   87.0738    8.6388 N.ar    1  UNL1       -0.2864
      8 C          60.6842   88.5510    8.8985 C.ar    1  UNL1        0.1022
      9 C          59.4934   89.1580    8.2177 C.ar    1  UNL1        0.1196
     10 N          58.7368   88.0560    7.5371 N.ar    1  UNL1       -0.2220
     11 C          59.4600   86.7678    7.7973 C.ar    1  UNL1        0.1828
     12 O          64.6884   83.0883   10.6178 O.3     1  UNL1       -0.4690
     13 C          64.8030   82.8041   12.0861 C.3     1  UNL1        0.2508
     14 C          61.3400   80.9724   14.3004 C.ar    1  UNL1        0.0207
     15 C          61.9945   80.2218   13.1787 C.ar    1  UNL1        0.0029
     16 C          63.1488   80.8323   12.4407 C.ar    1  UNL1        0.0185
     17 C          63.6487   82.1935   12.8242 C.ar    1  UNL1        0.1026
     18 N          62.9942   82.9442   13.9458 N.ar    1  UNL1       -0.2445
     19 C          61.8399   82.3337   14.6839 C.ar    1  UNL1        0.0986
@<TRIPOS>BOND
     1    14    15   ar
     2    15    16   ar
     3    16    17   ar
     4    17    13    1
     5    13    12    1
     6    12     1    1
     7     1     2   ar
     8     2     3   ar
     9     3     4   ar
    10     4     7    1
    11     7     8   ar
    12     8     9   ar
    13     9    10   ar
    14    10    11   ar
    15     4     5   ar
    16     5     6   ar
    17    17    18   ar
    18    18    19   ar
    19    19    14   ar
    20     6     1   ar
    21    11     7   ar
