@<TRIPOS>MOLECULE
*****
 27 29 0 0 0
SMALL
GASTEIGER

@<TRIPOS>ATOM
      1 N          63.2597   86.4032   13.0020 N.am    1  UNL1       -0.2681
      2 C          63.9820   87.3354   13.9289 C.2     1  UNL1        0.3078
      3 O          64.7052   86.7920   15.1255 O.2     1  UNL1       -0.2522
      4 N          63.9812   88.8109   13.6592 N.am    1  UNL1       -0.2591
      5 C          64.7036   89.7432   14.5862 C.3     1  UNL1        0.1121
      6 C          64.7028   91.2187   14.3166 C.3     1  UNL1        0.0904
      7 N          63.9796   91.7621   13.1200 N.3     1  UNL1       -0.2946
      8 C          63.2572   90.8299   12.1931 C.3     1  UNL1        0.0925
      9 C          63.2581   89.3543   12.4627 C.3     1  UNL1        0.1361
     10 H          62.7850   86.7598   12.2166 H       1  UNL1        0.1564
     11 H          64.6712   92.2584   12.5582 H       1  UNL1        0.1233
     12 C          63.2622   81.9765   13.8109 C.ar    1  UNL1        0.1388
     13 C          64.0429   82.5281   12.6550 C.ar    1  UNL1        0.0382
     14 C          64.0421   84.0037   12.3854 C.ar    1  UNL1        0.0178
     15 C          63.2605   84.9276   13.2716 C.ar    1  UNL1        0.0518
     16 C          62.4798   84.3760   14.4275 C.ar    1  UNL1        0.0178
     17 C          62.4806   82.9004   14.6972 C.ar    1  UNL1        0.0382
     18 C          62.2693   79.6123   13.3929 C.3     1  UNL1        0.2525
     19 O          63.2630   80.5009   14.0806 O.3     1  UNL1       -0.4714
     20 C          62.5357   88.4221   11.5358 C.3     1  UNL1        0.2265
     21 O          62.3878   88.7726   10.0848 O.3     1  UNL1       -0.4721
     22 C          61.3182   88.1194    9.2607 C.ar    1  UNL1        0.1577
     23 C          61.3836   86.6478    8.9770 C.ar    1  UNL1        0.0401
     24 C          60.3141   85.9946    8.1529 C.ar    1  UNL1        0.0238
     25 C          59.1790   86.8128    7.6125 C.ar    1  UNL1        0.0991
     26 N          59.1135   88.2843    7.8961 N.ar    1  UNL1       -0.2391
     27 C          60.1831   88.9376    8.7203 C.ar    1  UNL1        0.1356
@<TRIPOS>BOND
     1    18    19    1
     2    19    12    1
     3    12    13   ar
     4    13    14   ar
     5    14    15   ar
     6    15     1    1
     7     1     2   am
     8     2     3    2
     9     2     4   am
    10     4     5    1
    11     5     6    1
    12     6     7    1
    13     7     8    1
    14     8     9    1
    15     9    20    1
    16    20    21    1
    17    21    22    1
    18    22    23   ar
    19    23    24   ar
    20    24    25   ar
    21    25    26   ar
    22    26    27   ar
    23    15    16   ar
    24    16    17   ar
    25    17    12   ar
    26     9     4    1
    27    27    22   ar
    28     1    10    1
    29     7    11    1
@<TRIPOS>MOLECULE
*****
 27 29 0 0 0
SMALL
GASTEIGER

@<TRIPOS>ATOM
      1 N          63.0934   90.1184   12.3961 N.am    1  UNL1       -0.2681
      2 C          63.9377   91.2598   11.9121 C.2     1  UNL1        0.3078
      3 O          63.8782   91.6794   10.4732 O.2     1  UNL1       -0.2522
      4 N          64.8415   91.9818   12.8671 N.am    1  UNL1       -0.2591
      5 C          65.6858   93.1233   12.3830 C.3     1  UNL1        0.1121
      6 C          66.5896   93.8452   13.3380 C.3     1  UNL1        0.0904
      7 N          66.6491   93.4257   14.7769 N.3     1  UNL1       -0.2946
      8 C          65.8048   92.2843   15.2609 C.3     1  UNL1        0.0925
      9 C          64.9010   91.5623   14.3059 C.3     1  UNL1        0.1361
     10 H          63.1325   89.8430   13.3405 H       1  UNL1        0.1564
     11 H          66.3887   94.2407   15.3323 H       1  UNL1        0.1233
     12 C          60.3820   87.9525    9.5312 C.ar    1  UNL1        0.1388
     13 C          61.5050   87.2181   10.2017 C.ar    1  UNL1        0.0382
     14 C          62.4088   87.9401   11.1566 C.ar    1  UNL1        0.0178
     15 C          62.1896   89.3964   11.4411 C.ar    1  UNL1        0.0518
     16 C          61.0666   90.1308   10.7707 C.ar    1  UNL1        0.0178
     17 C          60.1628   89.4088    9.8158 C.ar    1  UNL1        0.0382
     18 C          60.0172   86.1135    7.7326 C.3     1  UNL1        0.2525
     19 O          59.4782   87.2305    8.5763 O.3     1  UNL1       -0.4714
     20 C          64.0567   90.4208   14.7899 C.3     1  UNL1        0.2265
     21 O          64.5194   89.0081   14.5896 O.3     1  UNL1       -0.4721
     22 C          63.9740   87.9105   15.4543 C.ar    1  UNL1        0.1577
     23 C          63.1879   88.2471   16.6867 C.ar    1  UNL1        0.0401
     24 C          62.6424   87.1495   17.5514 C.ar    1  UNL1        0.0238
     25 C          62.8830   85.7153   17.1837 C.ar    1  UNL1        0.0991
     26 N          63.6691   85.3787   15.9514 N.ar    1  UNL1       -0.2391
     27 C          64.2146   86.4763   15.0866 C.ar    1  UNL1        0.1356
@<TRIPOS>BOND
     1    18    19    1
     2    19    12    1
     3    12    13   ar
     4    13    14   ar
     5    14    15   ar
     6    15     1    1
     7     1     2   am
     8     2     3    2
     9     2     4   am
    10     4     5    1
    11     5     6    1
    12     6     7    1
    13     7     8    1
    14     8     9    1
    15     9    20    1
    16    20    21    1
    17    21    22    1
    18    22    23   ar
    19    23    24   ar
    20    24    25   ar
    21    25    26   ar
    22    26    27   ar
    23    15    16   ar
    24    16    17   ar
    25    17    12   ar
    26     9     4    1
    27    27    22   ar
    28     1    10    1
    29     7    11    1
@<TRIPOS>MOLECULE
*****
 27 29 0 0 0
SMALL
GASTEIGER

@<TRIPOS>ATOM
      1 N          63.4490   90.6280   11.8668 N.am    1  UNL1       -0.2681
      2 C          63.5049   90.6385   13.3657 C.2     1  UNL1        0.3078
      3 O          62.5451   89.8011   14.1579 O.2     1  UNL1       -0.2522
      4 N          64.5206   91.4864   14.0724 N.am    1  UNL1       -0.2591
      5 C          64.5765   91.4968   15.5714 C.3     1  UNL1        0.1121
      6 C          65.5922   92.3447   16.2781 C.3     1  UNL1        0.0904
      7 N          66.5520   93.1821   15.4859 N.3     1  UNL1       -0.2946
      8 C          66.4961   93.1717   13.9870 C.3     1  UNL1        0.0925
      9 C          65.4804   92.3238   13.2802 C.3     1  UNL1        0.1361
     10 H          64.0789   91.1777   11.3468 H       1  UNL1        0.1564
     11 H          67.4908   92.8812   15.7476 H       1  UNL1        0.1233
     12 C          60.4019   88.0844    9.7466 C.ar    1  UNL1        0.1388
     13 C          60.2173   89.5712    9.8200 C.ar    1  UNL1        0.0382
     14 C          61.2330   90.4191   10.5267 C.ar    1  UNL1        0.0178
     15 C          62.4333   89.7802   11.1601 C.ar    1  UNL1        0.0518
     16 C          62.6178   88.2934   11.0867 C.ar    1  UNL1        0.0178
     17 C          61.6021   87.4455   10.3799 C.ar    1  UNL1        0.0382
     18 C          59.8045   86.3636    7.8941 C.3     1  UNL1        0.2525
     19 O          59.3862   87.2366    9.0399 O.3     1  UNL1       -0.4714
     20 C          65.4245   92.3133   11.7814 C.3     1  UNL1        0.2265
     21 O          66.6392   92.6835   10.9829 O.3     1  UNL1       -0.4721
     22 C          66.7479   94.0494   10.3726 C.ar    1  UNL1        0.1577
     23 C          67.4718   94.2342    9.0718 C.ar    1  UNL1        0.0401
     24 C          67.5805   95.6001    8.4615 C.ar    1  UNL1        0.0238
     25 C          66.9654   96.7812    9.1519 C.ar    1  UNL1        0.0991
     26 N          66.2415   96.5964   10.4526 N.ar    1  UNL1       -0.2391
     27 C          66.1328   95.2305   11.0630 C.ar    1  UNL1        0.1356
@<TRIPOS>BOND
     1    18    19    1
     2    19    12    1
     3    12    13   ar
     4    13    14   ar
     5    14    15   ar
     6    15     1    1
     7     1     2   am
     8     2     3    2
     9     2     4   am
    10     4     5    1
    11     5     6    1
    12     6     7    1
    13     7     8    1
    14     8     9    1
    15     9    20    1
    16    20    21    1
    17    21    22    1
    18    22    23   ar
    19    23    24   ar
    20    24    25   ar
    21    25    26   ar
    22    26    27   ar
    23    15    16   ar
    24    16    17   ar
    25    17    12   ar
    26     9     4    1
    27    27    22   ar
    28     1    10    1
    29     7    11    1
@<TRIPOS>MOLECULE
*****
 27 29 0 0 0
SMALL
GASTEIGER

@<TRIPOS>ATOM
      1 N          63.0138   86.2164   12.6530 N.am    1  UNL1       -0.2681
      2 C          62.1948   86.6283   11.4658 C.2     1  UNL1        0.3078
      3 O          61.4522   85.5948   10.6718 O.2     1  UNL1       -0.2522
      4 N          62.1184   88.0738   11.0725 N.am    1  UNL1       -0.2591
      5 C          61.2993   88.4858    9.8852 C.3     1  UNL1        0.1121
      6 C          61.2229   89.9313    9.4919 C.3     1  UNL1        0.0904
      7 N          61.9655   90.9648   10.2859 N.3     1  UNL1       -0.2946
      8 C          62.7845   90.5529   11.4731 C.3     1  UNL1        0.0925
      9 C          62.8609   89.1074   11.8664 C.3     1  UNL1        0.1361
     10 H          63.5012   86.8948   13.1741 H       1  UNL1        0.1564
     11 H          61.2712   91.6312   10.6240 H       1  UNL1        0.1233
     12 C          63.2432   81.8799   13.8329 C.ar    1  UNL1        0.1388
     13 C          62.4809   82.8500   14.6860 C.ar    1  UNL1        0.0382
     14 C          62.4045   84.2955   14.2927 C.ar    1  UNL1        0.0178
     15 C          63.0903   84.7709   13.0463 C.ar    1  UNL1        0.0518
     16 C          63.8526   83.8008   12.1932 C.ar    1  UNL1        0.0178
     17 C          63.9291   82.3553   12.5865 C.ar    1  UNL1        0.0382
     18 C          62.4389   79.4257   13.5504 C.3     1  UNL1        0.2525
     19 O          63.3197   80.4344   14.2262 O.3     1  UNL1       -0.4714
     20 C          63.6799   88.6955   13.0536 C.3     1  UNL1        0.2265
     21 O          63.3589   89.2432   14.4127 O.3     1  UNL1       -0.4721
     22 C          64.1733   90.3681   14.9794 C.ar    1  UNL1        0.1577
     23 C          65.4657   90.7612   14.3273 C.ar    1  UNL1        0.0401
     24 C          66.2800   91.8862   14.8940 C.ar    1  UNL1        0.0238
     25 C          65.8020   92.6182   16.1129 C.ar    1  UNL1        0.0991
     26 N          64.5097   92.2252   16.7651 N.ar    1  UNL1       -0.2391
     27 C          63.6953   91.1001   16.1983 C.ar    1  UNL1        0.1356
@<TRIPOS>BOND
     1    18    19    1
     2    19    12    1
     3    12    13   ar
     4    13    14   ar
     5    14    15   ar
     6    15     1    1
     7     1     2   am
     8     2     3    2
     9     2     4   am
    10     4     5    1
    11     5     6    1
    12     6     7    1
    13     7     8    1
    14     8     9    1
    15     9    20    1
    16    20    21    1
    17    21    22    1
    18    22    23   ar
    19    23    24   ar
    20    24    25   ar
    21    25    26   ar
    22    26    27   ar
    23    15    16   ar
    24    16    17   ar
    25    17    12   ar
    26     9     4    1
    27    27    22   ar
    28     1    10    1
    29     7    11    1
@<TRIPOS>MOLECULE
*****
 27 29 0 0 0
SMALL
GASTEIGER

@<TRIPOS>ATOM
      1 N          62.7305   88.7199   11.3708 N.am    1  UNL1       -0.2681
      2 C          61.6655   89.2498   10.4571 C.2     1  UNL1        0.3078
      3 O          61.3422   90.7146   10.4521 O.2     1  UNL1       -0.2522
      4 N          60.9236   88.3150    9.5483 N.am    1  UNL1       -0.2591
      5 C          59.8586   88.8450    8.6346 C.3     1  UNL1        0.1121
      6 C          59.1168   87.9102    7.7259 C.3     1  UNL1        0.0904
      7 N          59.4400   86.4454    7.7309 N.3     1  UNL1       -0.2946
      8 C          60.5050   85.9155    8.6446 C.3     1  UNL1        0.0925
      9 C          61.2468   86.8503    9.5533 C.3     1  UNL1        0.1361
     10 H          62.9426   87.7585   11.3741 H       1  UNL1        0.1564
     11 H          59.7196   86.2023    6.7806 H       1  UNL1        0.1233
     12 C          64.9560   91.5244   14.0970 C.ar    1  UNL1        0.1388
     13 C          64.6382   91.9397   12.6912 C.ar    1  UNL1        0.0382
     14 C          63.8963   91.0049   11.7824 C.ar    1  UNL1        0.0178
     15 C          63.4723   89.6547   12.2795 C.ar    1  UNL1        0.0518
     16 C          63.7901   89.2394   13.6854 C.ar    1  UNL1        0.0178
     17 C          64.5319   90.1742   14.5941 C.ar    1  UNL1        0.0382
     18 C          66.6426   93.4721   14.4304 C.3     1  UNL1        0.2525
     19 O          65.6978   92.4592   15.0058 O.3     1  UNL1       -0.4714
     20 C          62.3118   86.3204   10.4670 C.3     1  UNL1        0.2265
     21 O          61.9421   85.7846   11.8185 O.3     1  UNL1       -0.4721
     22 C          62.5758   84.5226   12.3240 C.ar    1  UNL1        0.1577
     23 C          63.1071   83.5093   11.3539 C.ar    1  UNL1        0.0401
     24 C          63.7408   82.2473   11.8594 C.ar    1  UNL1        0.0238
     25 C          63.8434   81.9984   13.3351 C.ar    1  UNL1        0.0991
     26 N          63.3122   83.0117   14.3052 N.ar    1  UNL1       -0.2391
     27 C          62.6784   84.2738   13.7997 C.ar    1  UNL1        0.1356
@<TRIPOS>BOND
     1    18    19    1
     2    19    12    1
     3    12    13   ar
     4    13    14   ar
     5    14    15   ar
     6    15     1    1
     7     1     2   am
     8     2     3    2
     9     2     4   am
    10     4     5    1
    11     5     6    1
    12     6     7    1
    13     7     8    1
    14     8     9    1
    15     9    20    1
    16    20    21    1
    17    21    22    1
    18    22    23   ar
    19    23    24   ar
    20    24    25   ar
    21    25    26   ar
    22    26    27   ar
    23    15    16   ar
    24    16    17   ar
    25    17    12   ar
    26     9     4    1
    27    27    22   ar
    28     1    10    1
    29     7    11    1
@<TRIPOS>MOLECULE
*****
 27 29 0 0 0
SMALL
GASTEIGER

@<TRIPOS>ATOM
      1 N          62.3635   88.5172   11.2715 N.am    1  UNL1       -0.2681
      2 C          61.5824   89.2718   10.2369 C.2     1  UNL1        0.3078
      3 O          61.6670   90.7682   10.1771 O.2     1  UNL1       -0.2522
      4 N          60.7167   88.5299    9.2621 N.am    1  UNL1       -0.2591
      5 C          59.9356   89.2846    8.2275 C.3     1  UNL1        0.1121
      6 C          59.0699   88.5428    7.2526 C.3     1  UNL1        0.0904
      7 N          58.9853   87.0463    7.3125 N.3     1  UNL1       -0.2946
      8 C          59.7664   86.2917    8.3471 C.3     1  UNL1        0.0925
      9 C          60.6321   87.0336    9.3219 C.3     1  UNL1        0.1361
     10 H          62.3080   87.5351   11.3108 H       1  UNL1        0.1564
     11 H          59.2879   86.6977    6.4029 H       1  UNL1        0.1233
     12 C          64.9606   90.7427   14.1960 C.ar    1  UNL1        0.1388
     13 C          64.5733   89.3195   14.4689 C.ar    1  UNL1        0.0382
     14 C          63.7076   88.5777   13.4941 C.ar    1  UNL1        0.0178
     15 C          63.2292   89.2590   12.2463 C.ar    1  UNL1        0.0518
     16 C          63.6166   90.6822   11.9734 C.ar    1  UNL1        0.0178
     17 C          64.4823   91.4240   12.9482 C.ar    1  UNL1        0.0382
     18 C          65.1995   92.2617   16.2901 C.3     1  UNL1        0.2525
     19 O          65.8263   91.4845   15.1708 O.3     1  UNL1       -0.4714
     20 C          61.4132   86.2790   10.3565 C.3     1  UNL1        0.2265
     21 O          62.6513   85.5294    9.9624 O.3     1  UNL1       -0.4721
     22 C          63.1733   84.4298   10.8391 C.ar    1  UNL1        0.1577
     23 C          62.8005   84.3876   12.2914 C.ar    1  UNL1        0.0401
     24 C          63.3225   83.2881   13.1681 C.ar    1  UNL1        0.0238
     25 C          64.2172   82.2308   12.5924 C.ar    1  UNL1        0.0991
     26 N          64.5901   82.2729   11.1402 N.ar    1  UNL1       -0.2391
     27 C          64.0681   83.3725   10.2634 C.ar    1  UNL1        0.1356
@<TRIPOS>BOND
     1    18    19    1
     2    19    12    1
     3    12    13   ar
     4    13    14   ar
     5    14    15   ar
     6    15     1    1
     7     1     2   am
     8     2     3    2
     9     2     4   am
    10     4     5    1
    11     5     6    1
    12     6     7    1
    13     7     8    1
    14     8     9    1
    15     9    20    1
    16    20    21    1
    17    21    22    1
    18    22    23   ar
    19    23    24   ar
    20    24    25   ar
    21    25    26   ar
    22    26    27   ar
    23    15    16   ar
    24    16    17   ar
    25    17    12   ar
    26     9     4    1
    27    27    22   ar
    28     1    10    1
    29     7    11    1
@<TRIPOS>MOLECULE
*****
 27 29 0 0 0
SMALL
GASTEIGER

@<TRIPOS>ATOM
      1 N          62.3275   87.3151   11.5551 N.am    1  UNL1       -0.2681
      2 C          62.5257   85.8638   11.8782 C.2     1  UNL1        0.3078
      3 O          61.8766   84.8110   11.0295 O.2     1  UNL1       -0.2522
      4 N          63.3730   85.4653   13.0500 N.am    1  UNL1       -0.2591
      5 C          63.5712   84.0139   13.3732 C.3     1  UNL1        0.1121
      6 C          64.4185   83.6153   14.5450 C.3     1  UNL1        0.0904
      7 N          65.0676   84.6682   15.3937 N.3     1  UNL1       -0.2946
      8 C          64.8694   86.1194   15.0706 C.3     1  UNL1        0.0925
      9 C          64.0221   86.5180   13.8988 C.3     1  UNL1        0.1361
     10 H          62.7535   88.0060   12.1121 H       1  UNL1        0.1564
     11 H          66.0721   84.4940   15.3620 H       1  UNL1        0.1233
     12 C          59.7856   88.5107    8.0395 C.ar    1  UNL1        0.1388
     13 C          60.1805   89.5345    9.0621 C.ar    1  UNL1        0.0382
     14 C          61.0278   89.1359   10.2340 C.ar    1  UNL1        0.0178
     15 C          61.4802   87.7136   10.3832 C.ar    1  UNL1        0.0518
     16 C          61.0852   86.6898    9.3606 C.ar    1  UNL1        0.0178
     17 C          60.2379   87.0884    8.1887 C.ar    1  UNL1        0.0382
     18 C          59.3919   90.0085    5.9535 C.3     1  UNL1        0.2525
     19 O          58.9383   88.9092    6.8677 O.3     1  UNL1       -0.4714
     20 C          63.8239   87.9693   13.5756 C.3     1  UNL1        0.2265
     21 O          63.2685   88.8996   14.6130 O.3     1  UNL1       -0.4721
     22 C          64.0569   90.1016   15.0416 C.ar    1  UNL1        0.1577
     23 C          65.2995   90.4885   14.2958 C.ar    1  UNL1        0.0401
     24 C          66.0878   91.6905   14.7244 C.ar    1  UNL1        0.0238
     25 C          65.6336   92.5055   15.8988 C.ar    1  UNL1        0.0991
     26 N          64.3911   92.1186   16.6447 N.ar    1  UNL1       -0.2391
     27 C          63.6026   90.9166   16.2161 C.ar    1  UNL1        0.1356
@<TRIPOS>BOND
     1    18    19    1
     2    19    12    1
     3    12    13   ar
     4    13    14   ar
     5    14    15   ar
     6    15     1    1
     7     1     2   am
     8     2     3    2
     9     2     4   am
    10     4     5    1
    11     5     6    1
    12     6     7    1
    13     7     8    1
    14     8     9    1
    15     9    20    1
    16    20    21    1
    17    21    22    1
    18    22    23   ar
    19    23    24   ar
    20    24    25   ar
    21    25    26   ar
    22    26    27   ar
    23    15    16   ar
    24    16    17   ar
    25    17    12   ar
    26     9     4    1
    27    27    22   ar
    28     1    10    1
    29     7    11    1
@<TRIPOS>MOLECULE
*****
 27 29 0 0 0
SMALL
GASTEIGER

@<TRIPOS>ATOM
      1 N          65.0606   91.9263   11.9397 N.am    1  UNL1       -0.2681
      2 C          65.0843   92.1412   13.4240 C.2     1  UNL1        0.3078
      3 O          65.8641   93.2838   14.0041 O.2     1  UNL1       -0.2522
      4 N          64.3283   91.2135   14.3284 N.am    1  UNL1       -0.2591
      5 C          64.3521   91.4284   15.8127 C.3     1  UNL1        0.1121
      6 C          63.5960   90.5008   16.7171 C.3     1  UNL1        0.0904
      7 N          62.8162   89.3581   16.1370 N.3     1  UNL1       -0.2946
      8 C          62.7924   89.1432   14.6527 C.3     1  UNL1        0.0925
      9 C          63.5485   90.0709   13.7484 C.3     1  UNL1        0.1361
     10 H          64.5487   91.1763   11.5590 H       1  UNL1        0.1564
     11 H          61.8478   89.4828   16.4320 H       1  UNL1        0.1233
     12 C          67.3287   94.7093    9.2267 C.ar    1  UNL1        0.1388
     13 C          66.0953   95.1896    9.9323 C.ar    1  UNL1        0.0382
     14 C          65.3392   94.2619   10.8366 C.ar    1  UNL1        0.0178
     15 C          65.8166   92.8539   11.0354 C.ar    1  UNL1        0.0518
     16 C          67.0500   92.3736   10.3298 C.ar    1  UNL1        0.0178
     17 C          67.8061   93.3012    9.4255 C.ar    1  UNL1        0.0382
     18 C          67.4107   96.8555    7.7649 C.3     1  UNL1        0.2525
     19 O          68.0847   95.6369    8.3223 O.3     1  UNL1       -0.4714
     20 C          63.5247   89.8560   12.2641 C.3     1  UNL1        0.2265
     21 O          62.2800   90.1563   11.4826 O.3     1  UNL1       -0.4721
     22 C          61.6232   89.0769   10.6743 C.ar    1  UNL1        0.1577
     23 C          61.9868   87.6401   10.9059 C.ar    1  UNL1        0.0401
     24 C          61.3299   86.5606   10.0976 C.ar    1  UNL1        0.0238
     25 C          60.3095   86.9178    9.0579 C.ar    1  UNL1        0.0991
     26 N          59.9459   88.3545    8.8263 N.ar    1  UNL1       -0.2391
     27 C          60.6028   89.4341    9.6346 C.ar    1  UNL1        0.1356
@<TRIPOS>BOND
     1    18    19    1
     2    19    12    1
     3    12    13   ar
     4    13    14   ar
     5    14    15   ar
     6    15     1    1
     7     1     2   am
     8     2     3    2
     9     2     4   am
    10     4     5    1
    11     5     6    1
    12     6     7    1
    13     7     8    1
    14     8     9    1
    15     9    20    1
    16    20    21    1
    17    21    22    1
    18    22    23   ar
    19    23    24   ar
    20    24    25   ar
    21    25    26   ar
    22    26    27   ar
    23    15    16   ar
    24    16    17   ar
    25    17    12   ar
    26     9     4    1
    27    27    22   ar
    28     1    10    1
    29     7    11    1
@<TRIPOS>MOLECULE
*****
 27 29 0 0 0
SMALL
GASTEIGER

@<TRIPOS>ATOM
      1 N          62.8645   86.0545   12.1406 N.am    1  UNL1       -0.2681
      2 C          61.9548   86.7902   11.2020 C.2     1  UNL1        0.3078
      3 O          61.0272   86.0265   10.3039 O.2     1  UNL1       -0.2522
      4 N          61.9726   88.2895   11.1614 N.am    1  UNL1       -0.2591
      5 C          61.0627   89.0252   10.2227 C.3     1  UNL1        0.1121
      6 C          61.0805   90.5246   10.1820 C.3     1  UNL1        0.0904
      7 N          62.0081   91.2882   11.0801 N.3     1  UNL1       -0.2946
      8 C          62.9178   90.5526   12.0188 C.3     1  UNL1        0.0925
      9 C          62.9001   89.0532   12.0594 C.3     1  UNL1        0.1361
     10 H          63.4733   86.5557   12.7300 H       1  UNL1        0.1564
     11 H          61.4263   91.8998   11.6528 H       1  UNL1        0.1233
     12 C          62.8113   81.5565   12.2625 C.ar    1  UNL1        0.1388
     13 C          62.3356   82.3445   13.4468 C.ar    1  UNL1        0.0382
     14 C          62.3534   83.8439   13.4062 C.ar    1  UNL1        0.0178
     15 C          62.8468   84.5552   12.1812 C.ar    1  UNL1        0.0518
     16 C          63.3224   83.7671   10.9969 C.ar    1  UNL1        0.0178
     17 C          63.3047   82.2678   11.0375 C.ar    1  UNL1        0.0382
     18 C          62.3799   79.3457   13.5572 C.3     1  UNL1        0.2525
     19 O          62.7935   80.0572   12.3031 O.3     1  UNL1       -0.4714
     20 C          63.8098   88.3175   12.9980 C.3     1  UNL1        0.2265
     21 O          63.9783   88.7973   14.4093 O.3     1  UNL1       -0.4721
     22 C          63.6556   87.8848   15.5552 C.ar    1  UNL1        0.1577
     23 C          63.0141   88.4351   16.7945 C.ar    1  UNL1        0.0401
     24 C          62.6913   87.5226   17.9404 C.ar    1  UNL1        0.0238
     25 C          63.0101   86.0598   17.8471 C.ar    1  UNL1        0.0991
     26 N          63.6516   85.5096   16.6080 N.ar    1  UNL1       -0.2391
     27 C          63.9744   86.4220   15.4619 C.ar    1  UNL1        0.1356
@<TRIPOS>BOND
     1    18    19    1
     2    19    12    1
     3    12    13   ar
     4    13    14   ar
     5    14    15   ar
     6    15     1    1
     7     1     2   am
     8     2     3    2
     9     2     4   am
    10     4     5    1
    11     5     6    1
    12     6     7    1
    13     7     8    1
    14     8     9    1
    15     9    20    1
    16    20    21    1
    17    21    22    1
    18    22    23   ar
    19    23    24   ar
    20    24    25   ar
    21    25    26   ar
    22    26    27   ar
    23    15    16   ar
    24    16    17   ar
    25    17    12   ar
    26     9     4    1
    27    27    22   ar
    28     1    10    1
    29     7    11    1
