@<TRIPOS>MOLECULE
*****
 21 23 0 0 0
SMALL
GASTEIGER

@<TRIPOS>ATOM
      1 C          66.1143   92.8295   11.6049 C.ar    1  UNL1       -0.0157
      2 C          64.7614   92.2254   11.3713 C.ar    1  UNL1       -0.0038
      3 C          64.1854   91.2668   12.3709 C.ar    1  UNL1        0.0019
      4 C          64.9623   90.9122   13.6040 C.ar    1  UNL1        0.0275
      5 C          66.3152   91.5162   13.8376 C.ar    1  UNL1        0.1398
      6 F          67.0922   91.1616   15.0708 F       1  UNL1       -0.2042
      7 C          66.8913   92.4749   12.8381 C.ar    1  UNL1        0.0257
      8 C          64.3862   89.9535   14.6036 C.ar    1  UNL1        0.0031
      9 C          63.6740   90.4732   15.8171 C.ar    1  UNL1        0.0010
     10 C          63.0979   89.5145   16.8167 C.ar    1  UNL1        0.0122
     11 C          63.2340   88.0361   16.6026 C.ar    1  UNL1        0.0682
     12 CL         62.6580   87.0774   17.6021 Cl      1  UNL1       -0.0814
     13 C          63.9463   87.5164   15.3890 C.ar    1  UNL1        0.0682
     14 CL         64.0824   86.0380   15.1750 Cl      1  UNL1       -0.0814
     15 C          64.5223   88.4751   14.3896 C.ar    1  UNL1        0.0123
     16 C          66.6904   93.7882   10.6053 C.3     1  UNL1        0.0509
     17 C          67.5085   94.3089    9.4610 C.3     1  UNL1        0.0100
     18 C          67.5874   92.8600    9.8411 C.3     1  UNL1        0.0100
     19 O          66.2116   95.6070   12.3978 O.co2   1  UNL1       -0.5489
     20 C          65.9936   95.0493   11.0225 C.2     1  UNL1        0.0534
     21 O          65.0786   95.7527   10.0643 O.co2   1  UNL1       -0.5489
@<TRIPOS>UNITY_ATOM_ATTR
19 1
charge -1
@<TRIPOS>BOND
     1    19    20   ar
     2    20    21   ar
     3    20    16    1
     4    16     1    1
     5     1     2   ar
     6     2     3   ar
     7     3     4   ar
     8     4     8    1
     9     8     9   ar
    10     9    10   ar
    11    10    11   ar
    12    11    12    1
    13    11    13   ar
    14    13    14    1
    15    13    15   ar
    16     4     5   ar
    17     5     6    1
    18     5     7   ar
    19    16    17    1
    20    17    18    1
    21    18    16    1
    22     7     1   ar
    23    15     8   ar
@<TRIPOS>MOLECULE
*****
 21 23 0 0 0
SMALL
GASTEIGER

@<TRIPOS>ATOM
      1 C          64.9405   91.3813   13.3277 C.ar    1  UNL1       -0.0157
      2 C          64.3635   90.0599   13.7412 C.ar    1  UNL1       -0.0038
      3 C          63.4353   89.3256   12.8197 C.ar    1  UNL1        0.0019
      4 C          63.0841   89.9127   11.4848 C.ar    1  UNL1        0.0275
      5 C          63.6610   91.2341   11.0714 C.ar    1  UNL1        0.1398
      6 F          63.3098   91.8212    9.7364 F       1  UNL1       -0.2042
      7 C          64.5892   91.9684   11.9928 C.ar    1  UNL1        0.0257
      8 C          62.1558   89.1783   10.5633 C.ar    1  UNL1        0.0031
      9 C          60.8556   89.8040   10.1535 C.ar    1  UNL1        0.0010
     10 C          59.9273   89.0696    9.2320 C.ar    1  UNL1        0.0122
     11 C          60.2993   87.7095    8.7204 C.ar    1  UNL1        0.0682
     12 CL         59.3711   86.9751    7.7990 Cl      1  UNL1       -0.0814
     13 C          61.5995   87.0838    9.1303 C.ar    1  UNL1        0.0682
     14 CL         61.9715   85.7237    8.6187 Cl      1  UNL1       -0.0814
     15 C          62.5277   87.8182   10.0517 C.ar    1  UNL1        0.0123
     16 C          65.8688   92.1157   14.2492 C.3     1  UNL1        0.0509
     17 C          66.4654   92.6486   15.5181 C.3     1  UNL1        0.0100
     18 C          65.2361   91.7905   15.5698 C.3     1  UNL1        0.0100
     19 O          67.9595   91.8665   12.7271 O.co2   1  UNL1       -0.5489
     20 C          66.8237   92.6960   13.2486 C.2     1  UNL1        0.0534
     21 O          66.6429   94.1059   12.7693 O.co2   1  UNL1       -0.5489
@<TRIPOS>UNITY_ATOM_ATTR
19 1
charge -1
@<TRIPOS>BOND
     1    19    20   ar
     2    20    21   ar
     3    20    16    1
     4    16     1    1
     5     1     2   ar
     6     2     3   ar
     7     3     4   ar
     8     4     8    1
     9     8     9   ar
    10     9    10   ar
    11    10    11   ar
    12    11    12    1
    13    11    13   ar
    14    13    14    1
    15    13    15   ar
    16     4     5   ar
    17     5     6    1
    18     5     7   ar
    19    16    17    1
    20    17    18    1
    21    18    16    1
    22     7     1   ar
    23    15     8   ar
@<TRIPOS>MOLECULE
*****
 21 23 0 0 0
SMALL
GASTEIGER

@<TRIPOS>ATOM
      1 C          64.9905   91.3365   13.5076 C.ar    1  UNL1       -0.0157
      2 C          64.5273   89.9913   13.9827 C.ar    1  UNL1       -0.0038
      3 C          63.6388   89.1534   13.1119 C.ar    1  UNL1        0.0019
      4 C          63.2134   89.6608   11.7660 C.ar    1  UNL1        0.0275
      5 C          63.6765   91.0061   11.2909 C.ar    1  UNL1        0.1398
      6 F          63.2510   91.5135    9.9449 F       1  UNL1       -0.2042
      7 C          64.5650   91.8439   12.1617 C.ar    1  UNL1        0.0257
      8 C          62.3248   88.8229   10.8951 C.ar    1  UNL1        0.0031
      9 C          62.2791   87.3352   11.0813 C.ar    1  UNL1        0.0010
     10 C          61.3905   86.4973   10.2104 C.ar    1  UNL1        0.0122
     11 C          60.5476   87.1471    9.1534 C.ar    1  UNL1        0.0682
     12 CL         59.6590   86.3092    8.2826 Cl      1  UNL1       -0.0814
     13 C          60.5933   88.6348    8.9673 C.ar    1  UNL1        0.0682
     14 CL         59.7504   89.2846    7.9103 Cl      1  UNL1       -0.0814
     15 C          61.4819   89.4727    9.8381 C.ar    1  UNL1        0.0123
     16 C          65.8791   92.1745   14.3785 C.3     1  UNL1        0.0509
     17 C          66.4431   92.8209   15.6090 C.3     1  UNL1        0.0100
     18 C          65.2531   91.9140   15.7166 C.3     1  UNL1        0.0100
     19 O          67.9539   91.8908   12.8407 O.co2   1  UNL1       -0.5489
     20 C          66.8135   92.7259   13.3428 C.2     1  UNL1        0.0534
     21 O          66.6077   94.1127   12.8093 O.co2   1  UNL1       -0.5489
@<TRIPOS>UNITY_ATOM_ATTR
19 1
charge -1
@<TRIPOS>BOND
     1    19    20   ar
     2    20    21   ar
     3    20    16    1
     4    16     1    1
     5     1     2   ar
     6     2     3   ar
     7     3     4   ar
     8     4     8    1
     9     8     9   ar
    10     9    10   ar
    11    10    11   ar
    12    11    12    1
    13    11    13   ar
    14    13    14    1
    15    13    15   ar
    16     4     5   ar
    17     5     6    1
    18     5     7   ar
    19    16    17    1
    20    17    18    1
    21    18    16    1
    22     7     1   ar
    23    15     8   ar
@<TRIPOS>MOLECULE
*****
 21 23 0 0 0
SMALL
GASTEIGER

@<TRIPOS>ATOM
      1 C          64.8441   90.8359   14.0389 C.ar    1  UNL1       -0.0157
      2 C          64.5283   89.3935   14.3026 C.ar    1  UNL1       -0.0038
      3 C          63.6976   88.6167   13.3247 C.ar    1  UNL1        0.0019
      4 C          63.1827   89.2823   12.0830 C.ar    1  UNL1        0.0275
      5 C          63.4985   90.7247   11.8192 C.ar    1  UNL1        0.1398
      6 F          62.9836   91.3903   10.5775 F       1  UNL1       -0.2042
      7 C          64.3292   91.5015   12.7972 C.ar    1  UNL1        0.0257
      8 C          62.3520   88.5054   11.1050 C.ar    1  UNL1        0.0031
      9 C          62.3356   87.0065   11.1593 C.ar    1  UNL1        0.0010
     10 C          61.5048   86.2296   10.1813 C.ar    1  UNL1        0.0122
     11 C          60.6905   86.9516    9.1491 C.ar    1  UNL1        0.0682
     12 CL         59.8597   86.1748    8.1712 Cl      1  UNL1       -0.0814
     13 C          60.7069   88.4506    9.0949 C.ar    1  UNL1        0.0682
     14 CL         59.8925   89.1727    8.0627 Cl      1  UNL1       -0.0814
     15 C          61.5376   89.2274   10.0728 C.ar    1  UNL1        0.0123
     16 C          65.6749   91.6128   15.0168 C.3     1  UNL1        0.0509
     17 C          66.8589   92.3081   15.6208 C.3     1  UNL1        0.0100
     18 C          66.9807   91.6476   14.2795 C.3     1  UNL1        0.0100
     19 O          63.2726   91.2892   15.9521 O.co2   1  UNL1       -0.5489
     20 C          64.6575   91.8478   16.0937 C.2     1  UNL1        0.0534
     21 O          65.0251   92.6413   17.3124 O.co2   1  UNL1       -0.5489
@<TRIPOS>UNITY_ATOM_ATTR
19 1
charge -1
@<TRIPOS>BOND
     1    19    20   ar
     2    20    21   ar
     3    20    16    1
     4    16     1    1
     5     1     2   ar
     6     2     3   ar
     7     3     4   ar
     8     4     8    1
     9     8     9   ar
    10     9    10   ar
    11    10    11   ar
    12    11    12    1
    13    11    13   ar
    14    13    14    1
    15    13    15   ar
    16     4     5   ar
    17     5     6    1
    18     5     7   ar
    19    16    17    1
    20    17    18    1
    21    18    16    1
    22     7     1   ar
    23    15     8   ar
@<TRIPOS>MOLECULE
*****
 21 23 0 0 0
SMALL
GASTEIGER

@<TRIPOS>ATOM
      1 C          64.3069   90.5007   13.9120 C.ar    1  UNL1       -0.0157
      2 C          63.6072   91.2322   12.8051 C.ar    1  UNL1       -0.0038
      3 C          62.8731   90.4648   11.7458 C.ar    1  UNL1        0.0019
      4 C          62.8387   88.9660   11.7934 C.ar    1  UNL1        0.0275
      5 C          63.5384   88.2345   12.9003 C.ar    1  UNL1        0.1398
      6 F          63.5040   86.7357   12.9479 F       1  UNL1       -0.2042
      7 C          64.2725   89.0019   13.9596 C.ar    1  UNL1        0.0257
      8 C          62.1046   88.1986   10.7340 C.ar    1  UNL1        0.0031
      9 C          62.2580   86.7092   10.6446 C.ar    1  UNL1        0.0010
     10 C          61.5238   85.9418    9.5852 C.ar    1  UNL1        0.0122
     11 C          60.6363   86.6640    8.6152 C.ar    1  UNL1        0.0682
     12 CL         59.9022   85.8967    7.5558 Cl      1  UNL1       -0.0814
     13 C          60.4829   88.1535    8.7046 C.ar    1  UNL1        0.0682
     14 CL         59.5954   88.8756    7.7347 Cl      1  UNL1       -0.0814
     15 C          61.2170   88.9208    9.7640 C.ar    1  UNL1        0.0123
     16 C          65.0410   91.2681   14.9714 C.3     1  UNL1        0.0509
     17 C          66.1397   92.0232   15.6590 C.3     1  UNL1        0.0100
     18 C          66.3459   91.4992   14.2686 C.3     1  UNL1        0.0100
     19 O          63.7245   92.5763   16.7896 O.co2   1  UNL1       -0.5489
     20 C          63.9910   91.3034   16.0421 C.2     1  UNL1        0.0534
     21 O          63.2075   90.0658   16.3652 O.co2   1  UNL1       -0.5489
@<TRIPOS>UNITY_ATOM_ATTR
19 1
charge -1
@<TRIPOS>BOND
     1    19    20   ar
     2    20    21   ar
     3    20    16    1
     4    16     1    1
     5     1     2   ar
     6     2     3   ar
     7     3     4   ar
     8     4     8    1
     9     8     9   ar
    10     9    10   ar
    11    10    11   ar
    12    11    12    1
    13    11    13   ar
    14    13    14    1
    15    13    15   ar
    16     4     5   ar
    17     5     6    1
    18     5     7   ar
    19    16    17    1
    20    17    18    1
    21    18    16    1
    22     7     1   ar
    23    15     8   ar
@<TRIPOS>MOLECULE
*****
 21 23 0 0 0
SMALL
GASTEIGER

@<TRIPOS>ATOM
      1 C          63.1686   88.3999   12.3056 C.ar    1  UNL1       -0.0157
      2 C          62.3286   87.6263   11.3331 C.ar    1  UNL1       -0.0038
      3 C          62.1971   86.1387   11.4734 C.ar    1  UNL1        0.0019
      4 C          62.9056   85.4248   12.5862 C.ar    1  UNL1        0.0275
      5 C          63.7455   86.1984   13.5587 C.ar    1  UNL1        0.1398
      6 F          64.4540   85.4845   14.6716 F       1  UNL1       -0.2042
      7 C          63.8770   87.6860   13.4185 C.ar    1  UNL1        0.0257
      8 C          62.7741   83.9371   12.7265 C.ar    1  UNL1        0.0031
      9 C          62.4000   83.3387   14.0501 C.ar    1  UNL1        0.0010
     10 C          62.2684   81.8510   14.1903 C.ar    1  UNL1        0.0122
     11 C          62.5110   80.9618   13.0069 C.ar    1  UNL1        0.0682
     12 CL         62.3795   79.4742   13.1471 Cl      1  UNL1       -0.0814
     13 C          62.8851   81.5603   11.6833 C.ar    1  UNL1        0.0682
     14 CL         63.1277   80.6710   10.4999 Cl      1  UNL1       -0.0814
     15 C          63.0167   83.0479   11.5431 C.ar    1  UNL1        0.0123
     16 C          63.3001   89.8876   12.1654 C.3     1  UNL1        0.0509
     17 C          63.3067   91.2489   11.5355 C.3     1  UNL1        0.0100
     18 C          62.9859   90.0405   10.7066 C.3     1  UNL1        0.0100
     19 O          62.6596   90.0634   14.6771 O.co2   1  UNL1       -0.5489
     20 C          63.6600   90.2513   13.5754 C.2     1  UNL1        0.0534
     21 O          65.0205   90.8028   13.8837 O.co2   1  UNL1       -0.5489
@<TRIPOS>UNITY_ATOM_ATTR
19 1
charge -1
@<TRIPOS>BOND
     1    19    20   ar
     2    20    21   ar
     3    20    16    1
     4    16     1    1
     5     1     2   ar
     6     2     3   ar
     7     3     4   ar
     8     4     8    1
     9     8     9   ar
    10     9    10   ar
    11    10    11   ar
    12    11    12    1
    13    11    13   ar
    14    13    14    1
    15    13    15   ar
    16     4     5   ar
    17     5     6    1
    18     5     7   ar
    19    16    17    1
    20    17    18    1
    21    18    16    1
    22     7     1   ar
    23    15     8   ar
@<TRIPOS>MOLECULE
*****
 21 23 0 0 0
SMALL
GASTEIGER

@<TRIPOS>ATOM
      1 C          62.5289   89.5550   11.5249 C.ar    1  UNL1       -0.0157
      2 C          63.0454   90.9112   11.1458 C.ar    1  UNL1       -0.0038
      3 C          64.1230   91.5589   11.9638 C.ar    1  UNL1        0.0019
      4 C          64.6841   90.8504   13.1609 C.ar    1  UNL1        0.0275
      5 C          64.1677   89.4942   13.5400 C.ar    1  UNL1        0.1398
      6 F          64.7288   88.7856   14.7372 F       1  UNL1       -0.2042
      7 C          63.0901   88.8464   12.7220 C.ar    1  UNL1        0.0257
      8 C          65.7618   91.4982   13.9789 C.ar    1  UNL1        0.0031
      9 C          65.4380   92.0720   15.3265 C.ar    1  UNL1        0.0010
     10 C          66.5156   92.7198   16.1445 C.ar    1  UNL1        0.0122
     11 C          67.9171   92.7938   15.6149 C.ar    1  UNL1        0.0682
     12 CL         68.9947   93.4416   16.4329 Cl      1  UNL1       -0.0814
     13 C          68.2409   92.2200   14.2673 C.ar    1  UNL1        0.0682
     14 CL         69.6423   92.2940   13.7377 Cl      1  UNL1       -0.0814
     15 C          67.1632   91.5722   13.4494 C.ar    1  UNL1        0.0123
     16 C          61.4513   88.9072   10.7069 C.3     1  UNL1        0.0509
     17 C          60.7935   88.0289    9.6841 C.3     1  UNL1        0.0100
     18 C          62.2861   88.0184    9.8332 C.3     1  UNL1        0.0100
     19 O          59.6606   90.7885   10.6413 O.co2   1  UNL1       -0.5489
     20 C          60.2423   89.5709   11.2965 C.2     1  UNL1        0.0534
     21 O          59.6149   89.0171   12.5414 O.co2   1  UNL1       -0.5489
@<TRIPOS>UNITY_ATOM_ATTR
19 1
charge -1
@<TRIPOS>BOND
     1    19    20   ar
     2    20    21   ar
     3    20    16    1
     4    16     1    1
     5     1     2   ar
     6     2     3   ar
     7     3     4   ar
     8     4     8    1
     9     8     9   ar
    10     9    10   ar
    11    10    11   ar
    12    11    12    1
    13    11    13   ar
    14    13    14    1
    15    13    15   ar
    16     4     5   ar
    17     5     6    1
    18     5     7   ar
    19    16    17    1
    20    17    18    1
    21    18    16    1
    22     7     1   ar
    23    15     8   ar
@<TRIPOS>MOLECULE
*****
 21 23 0 0 0
SMALL
GASTEIGER

@<TRIPOS>ATOM
      1 C          62.0039   88.9521   10.3993 C.ar    1  UNL1       -0.0157
      2 C          62.3783   90.3684   10.0773 C.ar    1  UNL1       -0.0038
      3 C          63.2972   91.1269   10.9885 C.ar    1  UNL1        0.0019
      4 C          63.8416   90.4689   12.2217 C.ar    1  UNL1        0.0275
      5 C          63.4672   89.0526   12.5437 C.ar    1  UNL1        0.1398
      6 F          64.0116   88.3947   13.7769 F       1  UNL1       -0.2042
      7 C          62.5483   88.2942   11.6325 C.ar    1  UNL1        0.0257
      8 C          64.7606   91.2274   13.1330 C.ar    1  UNL1        0.0031
      9 C          66.0046   91.8616   12.5852 C.ar    1  UNL1        0.0010
     10 C          66.9236   92.6201   13.4965 C.ar    1  UNL1        0.0122
     11 C          66.5983   92.7444   14.9555 C.ar    1  UNL1        0.0682
     12 CL         67.5172   93.5028   15.8667 Cl      1  UNL1       -0.0814
     13 C          65.3542   92.1102   15.5033 C.ar    1  UNL1        0.0682
     14 CL         65.0290   92.2346   16.9623 Cl      1  UNL1       -0.0814
     15 C          64.4353   91.3518   14.5920 C.ar    1  UNL1        0.0123
     16 C          61.0849   88.1936    9.4880 C.3     1  UNL1        0.0509
     17 C          59.9653   87.9135    8.5299 C.3     1  UNL1        0.0100
     18 C          60.1878   89.3078    9.0364 C.3     1  UNL1        0.0100
     19 O          61.0953   85.8600   10.6300 O.co2   1  UNL1       -0.5489
     20 C          61.6629   86.8160    9.6232 C.2     1  UNL1        0.0534
     21 O          62.8085   86.3946    8.7514 O.co2   1  UNL1       -0.5489
@<TRIPOS>UNITY_ATOM_ATTR
19 1
charge -1
@<TRIPOS>BOND
     1    19    20   ar
     2    20    21   ar
     3    20    16    1
     4    16     1    1
     5     1     2   ar
     6     2     3   ar
     7     3     4   ar
     8     4     8    1
     9     8     9   ar
    10     9    10   ar
    11    10    11   ar
    12    11    12    1
    13    11    13   ar
    14    13    14    1
    15    13    15   ar
    16     4     5   ar
    17     5     6    1
    18     5     7   ar
    19    16    17    1
    20    17    18    1
    21    18    16    1
    22     7     1   ar
    23    15     8   ar
@<TRIPOS>MOLECULE
*****
 21 23 0 0 0
SMALL
GASTEIGER

@<TRIPOS>ATOM
      1 C          61.9613   87.8081   10.1371 C.ar    1  UNL1       -0.0157
      2 C          62.0450   89.2975    9.9808 C.ar    1  UNL1       -0.0038
      3 C          62.7270   90.1246   11.0300 C.ar    1  UNL1        0.0019
      4 C          63.3254   89.4621   12.2355 C.ar    1  UNL1        0.0275
      5 C          63.2417   87.9727   12.3917 C.ar    1  UNL1        0.1398
      6 F          63.8401   87.3102   13.5972 F       1  UNL1       -0.2042
      7 C          62.5597   87.1456   11.3425 C.ar    1  UNL1        0.0257
      8 C          64.0074   90.2892   13.2847 C.ar    1  UNL1        0.0031
      9 C          63.5607   90.2045   14.7141 C.ar    1  UNL1        0.0010
     10 C          64.2428   91.0316   15.7633 C.ar    1  UNL1        0.0122
     11 C          65.3715   91.9434   15.3830 C.ar    1  UNL1        0.0682
     12 CL         66.0535   92.7705   16.4321 Cl      1  UNL1       -0.0814
     13 C          65.8181   92.0281   13.9535 C.ar    1  UNL1        0.0682
     14 CL         66.9469   92.9399   13.5732 Cl      1  UNL1       -0.0814
     15 C          65.1361   91.2010   12.9044 C.ar    1  UNL1        0.0123
     16 C          61.2793   86.9810    9.0879 C.3     1  UNL1        0.0509
     17 C          61.0705   85.9365    8.0317 C.3     1  UNL1        0.0100
     18 C          62.4054   86.0676    8.7034 C.3     1  UNL1        0.0100
     19 O          59.2956   88.0110   10.4124 O.co2   1  UNL1       -0.5489
     20 C          59.9164   87.6071    9.1080 C.2     1  UNL1        0.0534
     21 O          59.1741   87.8294    7.8236 O.co2   1  UNL1       -0.5489
@<TRIPOS>UNITY_ATOM_ATTR
19 1
charge -1
@<TRIPOS>BOND
     1    19    20   ar
     2    20    21   ar
     3    20    16    1
     4    16     1    1
     5     1     2   ar
     6     2     3   ar
     7     3     4   ar
     8     4     8    1
     9     8     9   ar
    10     9    10   ar
    11    10    11   ar
    12    11    12    1
    13    11    13   ar
    14    13    14    1
    15    13    15   ar
    16     4     5   ar
    17     5     6    1
    18     5     7   ar
    19    16    17    1
    20    17    18    1
    21    18    16    1
    22     7     1   ar
    23    15     8   ar
