@<TRIPOS>MOLECULE
*****
 28 31 0 0 0
SMALL
GASTEIGER

@<TRIPOS>ATOM
      1 N          63.3603   83.1603   13.5704 N.3     1  UNL1       -0.2711
      2 C          64.0217   84.4716   13.2652 C.3     1  UNL1        0.0939
      3 C          63.8057   85.6489   14.1693 C.3     1  UNL1        0.1123
      4 N          62.9285   85.5150   15.3785 N.am    1  UNL1       -0.2612
      5 C          62.7125   86.6923   16.2826 C.2     1  UNL1        0.3072
      6 O          61.8353   86.5584   17.4919 O.2     1  UNL1       -0.2523
      7 N          63.3739   88.0035   15.9774 N.am    1  UNL1       -0.2640
      8 C          63.1580   89.1808   16.8814 C.3     1  UNL1        0.0954
      9 C          63.8194   90.4921   16.5762 C.3     1  UNL1        0.0307
     10 C          64.6967   90.6260   15.3669 C.3     1  UNL1        0.0801
     11 C          64.9126   89.4487   14.4628 C.3     1  UNL1        0.0307
     12 C          64.2513   88.1375   14.7681 C.3     1  UNL1        0.0954
     13 C          62.2671   84.2037   15.6838 C.3     1  UNL1        0.1123
     14 C          62.4830   83.0264   14.7797 C.3     1  UNL1        0.0939
     15 C          65.3581   91.9373   15.0617 C.2     1  UNL1        0.2253
     16 O          65.9356   92.7626   16.1731 O.2     1  UNL1       -0.2749
     17 N          65.7160   93.3765   11.7514 N.am    1  UNL1       -0.2796
     18 C          65.0676   92.2576   11.3322 C.3     1  UNL1        0.0933
     19 C          64.9331   92.0265   11.2413 C.3     1  UNL1        0.0199
     20 C          65.2182   92.2224   12.7008 C.3     1  UNL1        0.0018
     21 C          65.9334   93.4560   13.1662 C.3     1  UNL1        0.0018
     22 C          66.3637   94.4936   12.1721 C.3     1  UNL1        0.0199
     23 C          66.0787   94.2976   10.7125 C.3     1  UNL1        0.0018
     24 C          65.3634   93.0640   10.2471 C.3     1  UNL1        0.0018
     25 C          65.6498   93.2615   11.7114 C.3     1  UNL1        0.0933
     26 C          63.1422   80.6144   13.1006 C.3     1  UNL1        0.0173
     27 C          63.5762   81.9830   12.6664 C.3     1  UNL1        0.0577
     28 C          64.2262   82.1743   11.3282 C.3     1  UNL1        0.0173
@<TRIPOS>BOND
     1    26    27    1
     2    27    28    1
     3    27     1    1
     4     1     2    1
     5     2     3    1
     6     3     4    1
     7     4     5   am
     8     5     6    2
     9     5     7   am
    10     7     8    1
    11     8     9    1
    12     9    10    1
    13    10    15    1
    14    15    16    2
    15    15    17   am
    16    17    18    1
    17    18    19    1
    18    19    20    1
    19    20    21    1
    20    21    22    1
    21    22    23    1
    22    23    24    1
    23    22    25    1
    24    10    11    1
    25    11    12    1
    26     4    13    1
    27    13    14    1
    28    14     1    1
    29    12     7    1
    30    25    17    1
    31    24    19    1
@<TRIPOS>MOLECULE
*****
 28 31 0 0 0
SMALL
GASTEIGER

@<TRIPOS>ATOM
      1 N          63.0547   82.3663   12.9498 N.3     1  UNL1       -0.2711
      2 C          63.4485   83.7422   12.5006 C.3     1  UNL1        0.0939
      3 C          63.4315   84.8827   13.4747 C.3     1  UNL1        0.1123
      4 N          63.0207   84.6474   14.8980 N.am    1  UNL1       -0.2612
      5 C          63.0037   85.7879   15.8721 C.2     1  UNL1        0.3072
      6 O          62.5930   85.5526   17.2954 O.2     1  UNL1       -0.2523
      7 N          63.3975   87.1638   15.4228 N.am    1  UNL1       -0.2640
      8 C          63.3805   88.3044   16.3969 C.3     1  UNL1        0.0954
      9 C          63.7743   89.6803   15.9476 C.3     1  UNL1        0.0307
     10 C          64.1851   89.9156   14.5243 C.3     1  UNL1        0.0801
     11 C          64.2021   88.7751   13.5502 C.3     1  UNL1        0.0307
     12 C          63.8083   87.3992   13.9995 C.3     1  UNL1        0.0954
     13 C          62.6270   83.2715   15.3472 C.3     1  UNL1        0.1123
     14 C          62.6440   82.1309   14.3731 C.3     1  UNL1        0.0939
     15 C          64.5788   91.2915   14.0751 C.2     1  UNL1        0.2253
     16 O          63.7401   92.0202   13.0674 O.2     1  UNL1       -0.2749
     17 N          67.4912   93.1153   15.2367 N.am    1  UNL1       -0.2796
     18 C          67.7218   92.0128   15.9980 C.3     1  UNL1        0.0933
     19 C          67.7730   91.7856   16.1577 C.3     1  UNL1        0.0199
     20 C          66.5772   91.8326   15.2535 C.3     1  UNL1        0.0018
     21 C          66.3203   93.0477   14.4123 C.3     1  UNL1        0.0018
     22 C          67.2593   94.2157   14.4754 C.3     1  UNL1        0.0199
     23 C          68.4551   94.1687   15.3796 C.3     1  UNL1        0.0018
     24 C          68.7120   92.9536   16.2208 C.3     1  UNL1        0.0018
     25 C          67.5124   93.0016   15.3133 C.3     1  UNL1        0.0933
     26 C          62.6510   79.8555   12.4178 C.3     1  UNL1        0.0173
     27 C          63.0717   81.2257   11.9757 C.3     1  UNL1        0.0577
     28 C          63.5095   81.4553   10.5595 C.3     1  UNL1        0.0173
@<TRIPOS>BOND
     1    26    27    1
     2    27    28    1
     3    27     1    1
     4     1     2    1
     5     2     3    1
     6     3     4    1
     7     4     5   am
     8     5     6    2
     9     5     7   am
    10     7     8    1
    11     8     9    1
    12     9    10    1
    13    10    15    1
    14    15    16    2
    15    15    17   am
    16    17    18    1
    17    18    19    1
    18    19    20    1
    19    20    21    1
    20    21    22    1
    21    22    23    1
    22    23    24    1
    23    22    25    1
    24    10    11    1
    25    11    12    1
    26     4    13    1
    27    13    14    1
    28    14     1    1
    29    12     7    1
    30    25    17    1
    31    24    19    1
@<TRIPOS>MOLECULE
*****
 28 31 0 0 0
SMALL
GASTEIGER

@<TRIPOS>ATOM
      1 N          60.9988   87.0685    9.4748 N.3     1  UNL1       -0.2711
      2 C          61.6028   88.4398    9.4067 C.3     1  UNL1        0.0939
      3 C          62.4617   88.9377   10.5311 C.3     1  UNL1        0.1123
      4 N          62.7166   88.0643   11.7236 N.am    1  UNL1       -0.2612
      5 C          63.5755   88.5623   12.8481 C.2     1  UNL1        0.3072
      6 O          63.8304   87.6889   14.0406 O.2     1  UNL1       -0.2523
      7 N          64.1795   89.9336   12.7800 N.am    1  UNL1       -0.2640
      8 C          65.0384   90.4315   13.9044 C.3     1  UNL1        0.0954
      9 C          65.6424   91.8029   13.8363 C.3     1  UNL1        0.0307
     10 C          65.3875   92.6762   12.6437 C.3     1  UNL1        0.0801
     11 C          64.5286   92.1783   11.5193 C.3     1  UNL1        0.0307
     12 C          63.9246   90.8070   11.5874 C.3     1  UNL1        0.0954
     13 C          62.1126   86.6930   11.7917 C.3     1  UNL1        0.1123
     14 C          61.2537   86.1951   10.6673 C.3     1  UNL1        0.0939
     15 C          65.9915   94.0475   12.5756 C.2     1  UNL1        0.2253
     16 O          66.2030   94.8372   13.8333 O.2     1  UNL1       -0.2749
     17 N          67.0395   95.7204    9.5325 N.am    1  UNL1       -0.2796
     18 C          66.6120   94.5886    8.9125 C.3     1  UNL1        0.0933
     19 C          66.5243   94.3550    8.7802 C.3     1  UNL1        0.0199
     20 C          66.4198   94.4751   10.2716 C.3     1  UNL1        0.0018
     21 C          66.8906   95.7228   10.9584 C.3     1  UNL1        0.0018
     22 C          67.4660   96.8503   10.1536 C.3     1  UNL1        0.0199
     23 C          67.5705   96.7302    8.6621 C.3     1  UNL1        0.0018
     24 C          67.0997   95.4826    7.9754 C.3     1  UNL1        0.0018
     25 C          66.9952   95.6039    9.4718 C.3     1  UNL1        0.0933
     26 C          60.6646   85.5244    7.4123 C.3     1  UNL1        0.0173
     27 C          60.1399   86.5706    8.3503 C.3     1  UNL1        0.0577
     28 C          58.7562   87.1189    8.1640 C.3     1  UNL1        0.0173
@<TRIPOS>BOND
     1    26    27    1
     2    27    28    1
     3    27     1    1
     4     1     2    1
     5     2     3    1
     6     3     4    1
     7     4     5   am
     8     5     6    2
     9     5     7   am
    10     7     8    1
    11     8     9    1
    12     9    10    1
    13    10    15    1
    14    15    16    2
    15    15    17   am
    16    17    18    1
    17    18    19    1
    18    19    20    1
    19    20    21    1
    20    21    22    1
    21    22    23    1
    22    23    24    1
    23    22    25    1
    24    10    11    1
    25    11    12    1
    26     4    13    1
    27    13    14    1
    28    14     1    1
    29    12     7    1
    30    25    17    1
    31    24    19    1
@<TRIPOS>MOLECULE
*****
 28 31 0 0 0
SMALL
GASTEIGER

@<TRIPOS>ATOM
      1 N          66.7261   93.0104   11.6698 N.3     1  UNL1       -0.2711
      2 C          66.3022   91.5802   11.8271 C.3     1  UNL1        0.0939
      3 C          65.6138   91.1359   13.0836 C.3     1  UNL1        0.1123
      4 N          65.3492   92.1217   14.1826 N.am    1  UNL1       -0.2612
      5 C          64.6608   91.6774   15.4391 C.2     1  UNL1        0.3072
      6 O          64.3963   92.6633   16.5382 O.2     1  UNL1       -0.2523
      7 N          64.2369   90.2472   15.5965 N.am    1  UNL1       -0.2640
      8 C          63.5485   89.8029   16.8529 C.3     1  UNL1        0.0954
      9 C          63.1246   88.3726   17.0102 C.3     1  UNL1        0.0307
     10 C          63.3891   87.3868   15.9111 C.3     1  UNL1        0.0801
     11 C          64.0775   87.8311   14.6547 C.3     1  UNL1        0.0307
     12 C          64.5014   89.2613   14.4973 C.3     1  UNL1        0.0954
     13 C          65.7731   93.5519   14.0253 C.3     1  UNL1        0.1123
     14 C          66.4616   93.9962   12.7688 C.3     1  UNL1        0.0939
     15 C          62.9652   85.9566   16.0685 C.2     1  UNL1        0.2253
     16 O          62.5762   85.4339   17.4196 O.2     1  UNL1       -0.2749
     17 N          62.7788   83.5249   13.3835 N.am    1  UNL1       -0.2796
     18 C          63.2043   84.5484   12.5963 C.3     1  UNL1        0.0933
     19 C          63.2926   84.7586   12.4296 C.3     1  UNL1        0.0199
     20 C          63.0881   84.9808   13.8989 C.3     1  UNL1        0.0018
     21 C          62.6188   83.8534   14.7697 C.3     1  UNL1        0.0018
     22 C          62.3539   82.5036   14.1714 C.3     1  UNL1        0.0199
     23 C          62.5584   82.2814   12.7021 C.3     1  UNL1        0.0018
     24 C          63.0277   83.4088   11.8312 C.3     1  UNL1        0.0018
     25 C          62.8223   83.6309   13.3055 C.3     1  UNL1        0.0933
     26 C          67.1965   94.8432    9.8895 C.3     1  UNL1        0.0173
     27 C          67.4145   93.4547   10.4133 C.3     1  UNL1        0.0577
     28 C          68.3210   92.5105    9.6807 C.3     1  UNL1        0.0173
@<TRIPOS>BOND
     1    26    27    1
     2    27    28    1
     3    27     1    1
     4     1     2    1
     5     2     3    1
     6     3     4    1
     7     4     5   am
     8     5     6    2
     9     5     7   am
    10     7     8    1
    11     8     9    1
    12     9    10    1
    13    10    15    1
    14    15    16    2
    15    15    17   am
    16    17    18    1
    17    18    19    1
    18    19    20    1
    19    20    21    1
    20    21    22    1
    21    22    23    1
    22    23    24    1
    23    22    25    1
    24    10    11    1
    25    11    12    1
    26     4    13    1
    27    13    14    1
    28    14     1    1
    29    12     7    1
    30    25    17    1
    31    24    19    1
@<TRIPOS>MOLECULE
*****
 28 31 0 0 0
SMALL
GASTEIGER

@<TRIPOS>ATOM
      1 N          59.9486   89.1616    7.5938 N.3     1  UNL1       -0.2711
      2 C          60.5196   90.0754    8.6372 C.3     1  UNL1        0.0939
      3 C          61.2837   89.5062    9.7958 C.3     1  UNL1        0.1123
      4 N          61.4766   88.0232    9.9109 N.am    1  UNL1       -0.2612
      5 C          62.2407   87.4540   11.0695 C.2     1  UNL1        0.3072
      6 O          62.4337   85.9709   11.1846 O.2     1  UNL1       -0.2523
      7 N          62.8117   88.3678   12.1129 N.am    1  UNL1       -0.2640
      8 C          63.5758   87.7986   13.2714 C.3     1  UNL1        0.0954
      9 C          64.1468   88.7125   14.3149 C.3     1  UNL1        0.0307
     10 C          63.9539   90.1956   14.1997 C.3     1  UNL1        0.0801
     11 C          63.1898   90.7648   13.0412 C.3     1  UNL1        0.0307
     12 C          62.6188   89.8509   11.9978 C.3     1  UNL1        0.0954
     13 C          60.9056   87.1093    8.8675 C.3     1  UNL1        0.1123
     14 C          60.1415   87.6786    7.7089 C.3     1  UNL1        0.0939
     15 C          64.5249   91.1094   15.2431 C.2     1  UNL1        0.2253
     16 O          63.7014   91.4918   16.4371 O.2     1  UNL1       -0.2749
     17 N          67.8518   92.5524   15.1624 N.am    1  UNL1       -0.2796
     18 C          67.9814   91.8731   13.9919 C.3     1  UNL1        0.0933
     19 C          68.0121   91.7335   13.7484 C.3     1  UNL1        0.0199
     20 C          66.7314   91.6475   14.5246 C.3     1  UNL1        0.0018
     21 C          66.5857   92.3959   15.8163 C.3     1  UNL1        0.0018
     22 C          67.7206   93.2303   16.3318 C.3     1  UNL1        0.0199
     23 C          69.0012   93.3163   15.5556 C.3     1  UNL1        0.0018
     24 C          69.1470   92.5679   14.2639 C.3     1  UNL1        0.0018
     25 C          67.8624   92.4822   15.0433 C.3     1  UNL1        0.0933
     26 C          57.6991   89.5404    6.3502 C.3     1  UNL1        0.0173
     27 C          59.1845   89.7308    6.4352 C.3     1  UNL1        0.0577
     28 C          59.9059   90.4904    5.3617 C.3     1  UNL1        0.0173
@<TRIPOS>BOND
     1    26    27    1
     2    27    28    1
     3    27     1    1
     4     1     2    1
     5     2     3    1
     6     3     4    1
     7     4     5   am
     8     5     6    2
     9     5     7   am
    10     7     8    1
    11     8     9    1
    12     9    10    1
    13    10    15    1
    14    15    16    2
    15    15    17   am
    16    17    18    1
    17    18    19    1
    18    19    20    1
    19    20    21    1
    20    21    22    1
    21    22    23    1
    22    23    24    1
    23    22    25    1
    24    10    11    1
    25    11    12    1
    26     4    13    1
    27    13    14    1
    28    14     1    1
    29    12     7    1
    30    25    17    1
    31    24    19    1
@<TRIPOS>MOLECULE
*****
 28 31 0 0 0
SMALL
GASTEIGER

@<TRIPOS>ATOM
      1 N          65.9699   95.2734   10.3813 N.3     1  UNL1       -0.2711
      2 C          65.2504   93.9886   10.0959 C.3     1  UNL1        0.0939
      3 C          65.1058   92.9547   11.1730 C.3     1  UNL1        0.1123
      4 N          65.6808   93.2055   12.5355 N.am    1  UNL1       -0.2612
      5 C          65.5362   92.1716   13.6126 C.2     1  UNL1        0.3072
      6 O          66.1112   92.4225   14.9751 O.2     1  UNL1       -0.2523
      7 N          64.8167   90.8868   13.3272 N.am    1  UNL1       -0.2640
      8 C          64.6721   89.8529   14.4043 C.3     1  UNL1        0.0954
      9 C          63.9525   88.5681   14.1188 C.3     1  UNL1        0.0307
     10 C          63.3775   88.3172   12.7563 C.3     1  UNL1        0.0801
     11 C          63.5221   89.3511   11.6792 C.3     1  UNL1        0.0307
     12 C          64.2416   90.6359   11.9646 C.3     1  UNL1        0.0954
     13 C          66.4003   94.4903   12.8209 C.3     1  UNL1        0.1123
     14 C          66.5449   95.5242   11.7438 C.3     1  UNL1        0.0939
     15 C          62.6580   87.0324   12.4709 C.2     1  UNL1        0.2253
     16 O          61.4406   87.0332   11.5946 O.2     1  UNL1       -0.2749
     17 N          63.6130   83.7744   13.7478 N.am    1  UNL1       -0.2796
     18 C          64.6257   84.4486   14.3546 C.3     1  UNL1        0.0933
     19 C          64.8373   84.5852   14.4822 C.3     1  UNL1        0.0199
     20 C          63.8471   85.3279   13.6351 C.3     1  UNL1        0.0018
     21 C          62.7288   84.5866   12.9644 C.3     1  UNL1        0.0018
     22 C          62.6008   83.1025   13.1408 C.3     1  UNL1        0.0199
     23 C          63.5911   82.3598   13.9879 C.3     1  UNL1        0.0018
     24 C          64.7093   83.1011   14.6586 C.3     1  UNL1        0.0018
     25 C          63.7153   83.8455   13.8085 C.3     1  UNL1        0.0933
     26 C          64.8967   96.8485    8.6158 C.3     1  UNL1        0.0173
     27 C          66.1145   96.3073    9.3042 C.3     1  UNL1        0.0577
     28 C          67.4769   96.8000    8.9156 C.3     1  UNL1        0.0173
@<TRIPOS>BOND
     1    26    27    1
     2    27    28    1
     3    27     1    1
     4     1     2    1
     5     2     3    1
     6     3     4    1
     7     4     5   am
     8     5     6    2
     9     5     7   am
    10     7     8    1
    11     8     9    1
    12     9    10    1
    13    10    15    1
    14    15    16    2
    15    15    17   am
    16    17    18    1
    17    18    19    1
    18    19    20    1
    19    20    21    1
    20    21    22    1
    21    22    23    1
    22    23    24    1
    23    22    25    1
    24    10    11    1
    25    11    12    1
    26     4    13    1
    27    13    14    1
    28    14     1    1
    29    12     7    1
    30    25    17    1
    31    24    19    1
@<TRIPOS>MOLECULE
*****
 28 31 0 0 0
SMALL
GASTEIGER

@<TRIPOS>ATOM
      1 N          62.9601   81.9468   13.0872 N.3     1  UNL1       -0.2711
      2 C          62.7997   83.1921   12.2666 C.3     1  UNL1        0.0939
      3 C          63.1411   84.5282   12.8565 C.3     1  UNL1        0.1123
      4 N          63.6428   84.6191   14.2672 N.am    1  UNL1       -0.2612
      5 C          63.9842   85.9553   14.8572 C.2     1  UNL1        0.3072
      6 O          64.4859   86.0462   16.2678 O.2     1  UNL1       -0.2523
      7 N          63.8238   87.2006   14.0365 N.am    1  UNL1       -0.2640
      8 C          64.1652   88.5368   14.6265 C.3     1  UNL1        0.0954
      9 C          64.0048   89.7821   13.8058 C.3     1  UNL1        0.0307
     10 C          63.5031   89.6912   12.3951 C.3     1  UNL1        0.0801
     11 C          63.1618   88.3550   11.8051 C.3     1  UNL1        0.0307
     12 C          63.3221   87.1097   12.6258 C.3     1  UNL1        0.0954
     13 C          63.8031   83.3739   15.0878 C.3     1  UNL1        0.1123
     14 C          63.4618   82.0377   14.4979 C.3     1  UNL1        0.0939
     15 C          63.3428   90.9365   11.5745 C.2     1  UNL1        0.2253
     16 O          62.0218   91.2492   10.9363 O.2     1  UNL1       -0.2749
     17 N          65.9514   93.3786   10.9514 N.am    1  UNL1       -0.2796
     18 C          66.7244   92.5617   11.7151 C.3     1  UNL1        0.0933
     19 C          66.8881   92.3945   11.8732 C.3     1  UNL1        0.0199
     20 C          65.4554   92.0366   11.6101 C.3     1  UNL1        0.0018
     21 C          64.6002   92.9361   10.7678 C.3     1  UNL1        0.0018
     22 C          65.1777   94.1935   10.1887 C.3     1  UNL1        0.0199
     23 C          66.6104   94.5514   10.4518 C.3     1  UNL1        0.0018
     24 C          67.4656   93.6519   11.2941 C.3     1  UNL1        0.0018
     25 C          66.0280   93.2936   11.0296 C.3     1  UNL1        0.0933
     26 C          62.0168   79.5414   13.3601 C.3     1  UNL1        0.0173
     27 C          62.6187   80.6106   12.4972 C.3     1  UNL1        0.0577
     28 C          62.8792   80.3436   11.0444 C.3     1  UNL1        0.0173
@<TRIPOS>BOND
     1    26    27    1
     2    27    28    1
     3    27     1    1
     4     1     2    1
     5     2     3    1
     6     3     4    1
     7     4     5   am
     8     5     6    2
     9     5     7   am
    10     7     8    1
    11     8     9    1
    12     9    10    1
    13    10    15    1
    14    15    16    2
    15    15    17   am
    16    17    18    1
    17    18    19    1
    18    19    20    1
    19    20    21    1
    20    21    22    1
    21    22    23    1
    22    23    24    1
    23    22    25    1
    24    10    11    1
    25    11    12    1
    26     4    13    1
    27    13    14    1
    28    14     1    1
    29    12     7    1
    30    25    17    1
    31    24    19    1
@<TRIPOS>MOLECULE
*****
 28 31 0 0 0
SMALL
GASTEIGER

@<TRIPOS>ATOM
      1 N          59.1512   89.6515    6.6984 N.3     1  UNL1       -0.2711
      2 C          59.9170   90.2603    7.8355 C.3     1  UNL1        0.0939
      3 C          60.5966   89.3774    8.8398 C.3     1  UNL1        0.1123
      4 N          60.5106   87.8858    8.7071 N.am    1  UNL1       -0.2612
      5 C          61.1902   87.0030    9.7114 C.2     1  UNL1        0.3072
      6 O          61.1042   85.5114    9.5786 O.2     1  UNL1       -0.2523
      7 N          61.9560   87.6118   10.8485 N.am    1  UNL1       -0.2640
      8 C          62.6356   86.7289   11.8528 C.3     1  UNL1        0.0954
      9 C          63.4014   87.3378   12.9899 C.3     1  UNL1        0.0307
     10 C          63.4874   88.8294   13.1227 C.3     1  UNL1        0.0801
     11 C          62.8078   89.7122   12.1184 C.3     1  UNL1        0.0307
     12 C          62.0420   89.1035   10.9813 C.3     1  UNL1        0.0954
     13 C          59.7449   87.2771    7.5700 C.3     1  UNL1        0.1123
     14 C          59.0652   88.1599    6.5656 C.3     1  UNL1        0.0939
     15 C          64.2531   89.4382   14.2598 C.2     1  UNL1        0.2253
     16 O          64.2920   88.7494   15.5918 O.2     1  UNL1       -0.2749
     17 N          66.1051   92.5530   14.1015 N.am    1  UNL1       -0.2796
     18 C          65.6828   92.5925   12.8098 C.3     1  UNL1        0.0933
     19 C          65.5970   92.6042   12.5410 C.3     1  UNL1        0.0199
     20 C          65.1997   91.4574   13.4225 C.3     1  UNL1        0.0018
     21 C          65.6642   91.4113   14.8480 C.3     1  UNL1        0.0018
     22 C          66.5260   92.5119   15.3920 C.3     1  UNL1        0.0199
     23 C          66.9233   93.6587   14.5105 C.3     1  UNL1        0.0018
     24 C          66.4588   93.7048   13.0850 C.3     1  UNL1        0.0018
     25 C          66.0607   92.5546   13.9701 C.3     1  UNL1        0.0933
     26 C          59.2802   91.4862    4.8635 C.3     1  UNL1        0.0173
     27 C          58.4716   90.5343    5.6941 C.3     1  UNL1        0.0577
     28 C          56.9833   90.4653    5.5204 C.3     1  UNL1        0.0173
@<TRIPOS>BOND
     1    26    27    1
     2    27    28    1
     3    27     1    1
     4     1     2    1
     5     2     3    1
     6     3     4    1
     7     4     5   am
     8     5     6    2
     9     5     7   am
    10     7     8    1
    11     8     9    1
    12     9    10    1
    13    10    15    1
    14    15    16    2
    15    15    17   am
    16    17    18    1
    17    18    19    1
    18    19    20    1
    19    20    21    1
    20    21    22    1
    21    22    23    1
    22    23    24    1
    23    22    25    1
    24    10    11    1
    25    11    12    1
    26     4    13    1
    27    13    14    1
    28    14     1    1
    29    12     7    1
    30    25    17    1
    31    24    19    1
