@<TRIPOS>MOLECULE
*****
 32 35 0 0 0
SMALL
GASTEIGER

@<TRIPOS>ATOM
      1 C          63.3594   88.4145   16.2300 C.ar    1  UNL1        0.0678
      2 C          62.5454   87.8827   17.3721 C.ar    1  UNL1        0.0055
      3 C          62.5227   86.4098   17.6552 C.ar    1  UNL1        0.0016
      4 C          63.3141   85.4687   16.7961 C.ar    1  UNL1        0.0181
      5 C          64.1281   86.0006   15.6539 C.ar    1  UNL1        0.0922
      6 C          64.1508   87.4734   15.3708 C.ar    1  UNL1        0.1576
      7 F          64.9648   88.0052   14.2286 F       1  UNL1       -0.2027
      8 C          63.3821   89.8874   15.9469 C.2     1  UNL1        0.2014
      9 O          63.1029   90.8671   17.0479 O.2     1  UNL1       -0.2864
     10 C          66.9483   92.7652   14.2989 C.2     1  UNL1        0.0974
     11 C          66.8674   93.0039   12.8203 C.2     1  UNL1        0.2421
     12 N          65.7652   92.3773   12.0186 N.2     1  UNL1       -0.0304
     13 C          64.7440   91.5121   12.6956 C.2     1  UNL1        0.3721
     14 N          63.5530   90.7667   12.1703 N.2     1  UNL1       -0.0307
     15 C          62.8979   90.0673   13.3243 C.2     1  UNL1        0.2390
     16 C          63.6839   90.3805   14.5629 C.2     1  UNL1        0.0895
     17 C          64.8249   91.2734   14.1743 C.2     1  UNL1        0.0782
     18 C          65.9271   91.9000   14.9759 C.3     1  UNL1        0.0751
     19 N          69.1527   94.0184   15.9022 N.1     1  UNL1       -0.1910
     20 C          68.0505   93.3918   15.1006 C.1     1  UNL1        0.1003
     21 N          64.9194   85.0594   14.7948 N.pl3   1  UNL1       -0.2128
     22 H          65.8795   85.2183   14.6457 H       1  UNL1        0.1738
     23 S          64.2480   83.8763   14.1628 S.O2    1  UNL1        0.0737
     24 O          64.5838   83.0438   15.3644 O.2     1  UNL1       -0.1499
     25 O          63.9121   84.7088   12.9611 O.2     1  UNL1       -0.1499
     26 C          63.5765   82.6932   13.5308 C.ar    1  UNL1        0.1274
     27 C          62.6886   81.8070   14.3532 C.ar    1  UNL1        0.0203
     28 C          62.0171   80.6239   13.7213 C.ar    1  UNL1        0.0037
     29 C          62.2335   80.3270   12.2669 C.ar    1  UNL1        0.0297
     30 C          63.1213   81.2132   11.4446 C.ar    1  UNL1        0.1415
     31 F          63.3377   80.9163    9.9902 F       1  UNL1       -0.2041
     32 C          63.7928   82.3963   12.0765 C.ar    1  UNL1        0.0498
@<TRIPOS>BOND
     1    19    20    3
     2    20    10    1
     3    10    11    2
     4    11    12    1
     5    12    13    2
     6    13    14    1
     7    14    15    2
     8    15    16    1
     9    16     8    1
    10     8     9    2
    11     8     1    1
    12     1     2   ar
    13     2     3   ar
    14     3     4   ar
    15     4     5   ar
    16     5    21    1
    17    21    23    1
    18    23    24    2
    19    23    25    2
    20    23    26    1
    21    26    27   ar
    22    27    28   ar
    23    28    29   ar
    24    29    30   ar
    25    30    31    1
    26    30    32   ar
    27     5     6   ar
    28     6     7    1
    29    16    17    2
    30    17    18    1
    31    18    10    1
    32    17    13    1
    33     6     1   ar
    34    32    26   ar
    35    21    22    1
@<TRIPOS>MOLECULE
*****
 32 35 0 0 0
SMALL
GASTEIGER

@<TRIPOS>ATOM
      1 C          60.9919   88.7800    9.8164 C.ar    1  UNL1        0.0678
      2 C          59.9457   88.6241    8.7529 C.ar    1  UNL1        0.0055
      3 C          59.8943   87.3716    7.9292 C.ar    1  UNL1        0.0016
      4 C          60.8891   86.2749    8.1689 C.ar    1  UNL1        0.0181
      5 C          61.9354   86.4309    9.2325 C.ar    1  UNL1        0.0922
      6 C          61.9868   87.6834   10.0562 C.ar    1  UNL1        0.1576
      7 F          63.0330   87.8392   11.1197 F       1  UNL1       -0.2027
      8 C          61.0432   90.0326   10.6401 C.2     1  UNL1        0.2014
      9 O          59.7747   90.6395   11.1621 O.2     1  UNL1       -0.2864
     10 C          63.7514   90.0028   14.6875 C.2     1  UNL1        0.0974
     11 C          65.0185   90.7929   14.5459 C.2     1  UNL1        0.2421
     12 N          65.3304   91.4847   13.2521 N.2     1  UNL1       -0.0304
     13 C          64.3752   91.3865   12.0998 C.2     1  UNL1        0.3721
     14 N          64.4134   91.9566   10.7129 N.2     1  UNL1       -0.0307
     15 C          63.1699   91.5188    9.9973 C.2     1  UNL1        0.2390
     16 C          62.3631   90.6781   10.9419 C.2     1  UNL1        0.0895
     17 C          63.1081   90.5964   12.2414 C.2     1  UNL1        0.0782
     18 C          62.7962   89.9045   13.5352 C.3     1  UNL1        0.0751
     19 N          63.1277   88.6191   17.2752 N.1     1  UNL1       -0.1910
     20 C          63.4396   89.3109   15.9814 C.1     1  UNL1        0.1003
     21 N          62.9303   85.3342    9.4723 N.pl3   1  UNL1       -0.2128
     22 H          63.6649   85.1876    8.8334 H       1  UNL1        0.1738
     23 S          62.8059   84.4607   10.6854 S.O2    1  UNL1        0.0737
     24 O          64.0142   83.6854   10.2511 O.2     1  UNL1       -0.1499
     25 O          61.5975   85.2360   11.1197 O.2     1  UNL1       -0.1499
     26 C          62.6814   83.5872   11.8985 C.ar    1  UNL1        0.1274
     27 C          62.6182   84.2049   13.2640 C.ar    1  UNL1        0.0203
     28 C          62.4937   83.3315   14.4771 C.ar    1  UNL1        0.0037
     29 C          62.4325   81.8405   14.3248 C.ar    1  UNL1        0.0297
     30 C          62.4958   81.2229   12.9593 C.ar    1  UNL1        0.1415
     31 F          62.4346   79.7319   12.8070 F       1  UNL1       -0.2041
     32 C          62.6202   82.0962   11.7462 C.ar    1  UNL1        0.0498
@<TRIPOS>BOND
     1    19    20    3
     2    20    10    1
     3    10    11    2
     4    11    12    1
     5    12    13    2
     6    13    14    1
     7    14    15    2
     8    15    16    1
     9    16     8    1
    10     8     9    2
    11     8     1    1
    12     1     2   ar
    13     2     3   ar
    14     3     4   ar
    15     4     5   ar
    16     5    21    1
    17    21    23    1
    18    23    24    2
    19    23    25    2
    20    23    26    1
    21    26    27   ar
    22    27    28   ar
    23    28    29   ar
    24    29    30   ar
    25    30    31    1
    26    30    32   ar
    27     5     6   ar
    28     6     7    1
    29    16    17    2
    30    17    18    1
    31    18    10    1
    32    17    13    1
    33     6     1   ar
    34    32    26   ar
    35    21    22    1
@<TRIPOS>MOLECULE
*****
 32 35 0 0 0
SMALL
GASTEIGER

@<TRIPOS>ATOM
      1 C          63.6332   88.9931   16.0498 C.ar    1  UNL1        0.0678
      2 C          62.9029   88.4196   17.2278 C.ar    1  UNL1        0.0055
      3 C          62.8238   86.9329   17.4101 C.ar    1  UNL1        0.0016
      4 C          63.4751   86.0195   16.4143 C.ar    1  UNL1        0.0181
      5 C          64.2055   86.5930   15.2363 C.ar    1  UNL1        0.0922
      6 C          64.2846   88.0798   15.0540 C.ar    1  UNL1        0.1576
      7 F          65.0149   88.6531   13.8760 F       1  UNL1       -0.2027
      8 C          63.7123   90.4799   15.8676 C.2     1  UNL1        0.2014
      9 O          63.0579   91.3932   16.8613 O.2     1  UNL1       -0.2864
     10 C          62.4745   90.7496   11.1653 C.2     1  UNL1        0.0974
     11 C          63.5238   91.4142   10.3243 C.2     1  UNL1        0.2421
     12 N          64.7894   91.9108   10.9581 N.2     1  UNL1       -0.0304
     13 C          65.0057   91.7428   12.4328 C.2     1  UNL1        0.3721
     14 N          66.1436   92.1287   13.3307 N.2     1  UNL1       -0.0307
     15 C          65.7976   91.7025   14.7267 C.2     1  UNL1        0.2390
     16 C          64.4459   91.0533   14.6916 C.2     1  UNL1        0.0895
     17 C          63.9564   91.0783   13.2738 C.2     1  UNL1        0.0782
     18 C          62.6909   90.5816   12.6400 C.3     1  UNL1        0.0751
     19 N          59.9434   89.7563    9.8978 N.1     1  UNL1       -0.1910
     20 C          61.2090   90.2529   10.5315 C.1     1  UNL1        0.1003
     21 N          64.8567   85.6796   14.2405 N.pl3   1  UNL1       -0.2128
     22 H          65.7350   85.9114   13.8608 H       1  UNL1        0.1738
     23 S          64.1699   84.4130   13.8233 S.O2    1  UNL1        0.0737
     24 O          63.3686   85.1800   12.8137 O.2     1  UNL1       -0.1499
     25 O          64.9713   83.6459   14.8329 O.2     1  UNL1       -0.1499
     26 C          63.4831   83.1464   13.4061 C.ar    1  UNL1        0.1274
     27 C          63.9293   82.4235   12.1698 C.ar    1  UNL1        0.0203
     28 C          63.2426   81.1569   11.7526 C.ar    1  UNL1        0.0037
     29 C          62.1096   80.6131   12.5717 C.ar    1  UNL1        0.0297
     30 C          61.6635   81.3360   13.8079 C.ar    1  UNL1        0.1415
     31 F          60.5305   80.7922   14.6270 F       1  UNL1       -0.2041
     32 C          62.3502   82.6026   14.2252 C.ar    1  UNL1        0.0498
@<TRIPOS>BOND
     1    19    20    3
     2    20    10    1
     3    10    11    2
     4    11    12    1
     5    12    13    2
     6    13    14    1
     7    14    15    2
     8    15    16    1
     9    16     8    1
    10     8     9    2
    11     8     1    1
    12     1     2   ar
    13     2     3   ar
    14     3     4   ar
    15     4     5   ar
    16     5    21    1
    17    21    23    1
    18    23    24    2
    19    23    25    2
    20    23    26    1
    21    26    27   ar
    22    27    28   ar
    23    28    29   ar
    24    29    30   ar
    25    30    31    1
    26    30    32   ar
    27     5     6   ar
    28     6     7    1
    29    16    17    2
    30    17    18    1
    31    18    10    1
    32    17    13    1
    33     6     1   ar
    34    32    26   ar
    35    21    22    1
@<TRIPOS>MOLECULE
*****
 32 35 0 0 0
SMALL
GASTEIGER

@<TRIPOS>ATOM
      1 C          64.1456   84.5786   13.6626 C.ar    1  UNL1        0.0678
      2 C          64.1348   83.0820   13.7616 C.ar    1  UNL1        0.0055
      3 C          63.3970   82.2681   12.7401 C.ar    1  UNL1        0.0016
      4 C          62.6701   82.9508   11.6197 C.ar    1  UNL1        0.0181
      5 C          62.6809   84.4476   11.5208 C.ar    1  UNL1        0.0922
      6 C          63.4187   85.2615   12.5422 C.ar    1  UNL1        0.1576
      7 F          63.4295   86.7582   12.4432 F       1  UNL1       -0.2027
      8 C          64.8834   85.3925   14.6840 C.2     1  UNL1        0.2014
      9 O          66.3750   85.2815   14.7965 O.2     1  UNL1       -0.2864
     10 C          64.4302   90.2410   14.6298 C.2     1  UNL1        0.0974
     11 C          63.5689   90.7577   15.7438 C.2     1  UNL1        0.2421
     12 N          62.9552   89.8012   16.7228 N.2     1  UNL1       -0.0304
     13 C          63.2028   88.3280   16.5878 C.2     1  UNL1        0.3721
     14 N          62.7357   87.1535   17.3954 N.2     1  UNL1       -0.0307
     15 C          63.3084   85.9109   16.7806 C.2     1  UNL1        0.2390
     16 C          64.1294   86.3174   15.5929 C.2     1  UNL1        0.0895
     17 C          64.0642   87.8113   15.4738 C.2     1  UNL1        0.0782
     18 C          64.6779   88.7678   14.4948 C.3     1  UNL1        0.0751
     19 N          65.6576   92.1541   12.6718 N.1     1  UNL1       -0.1910
     20 C          65.0439   91.1975   13.6508 C.1     1  UNL1        0.1003
     21 N          61.9540   85.1304   10.4003 N.pl3   1  UNL1       -0.2128
     22 H          61.6765   84.6161    9.6080 H       1  UNL1        0.1738
     23 S          61.6498   86.5966   10.4871 S.O2    1  UNL1        0.0737
     24 O          60.8091   86.3502   11.7046 O.2     1  UNL1       -0.1499
     25 O          62.4905   86.8431    9.2696 O.2     1  UNL1       -0.1499
     26 C          61.3456   88.0630   10.5739 C.ar    1  UNL1        0.1274
     27 C          60.0172   88.5236   11.0966 C.ar    1  UNL1        0.0203
     28 C          59.7130   89.9899   11.1834 C.ar    1  UNL1        0.0037
     29 C          60.7371   90.9954   10.7474 C.ar    1  UNL1        0.0297
     30 C          62.0655   90.5348   10.2247 C.ar    1  UNL1        0.1415
     31 F          63.0896   91.5403    9.7888 F       1  UNL1       -0.2041
     32 C          62.3697   89.0685   10.1380 C.ar    1  UNL1        0.0498
@<TRIPOS>BOND
     1    19    20    3
     2    20    10    1
     3    10    11    2
     4    11    12    1
     5    12    13    2
     6    13    14    1
     7    14    15    2
     8    15    16    1
     9    16     8    1
    10     8     9    2
    11     8     1    1
    12     1     2   ar
    13     2     3   ar
    14     3     4   ar
    15     4     5   ar
    16     5    21    1
    17    21    23    1
    18    23    24    2
    19    23    25    2
    20    23    26    1
    21    26    27   ar
    22    27    28   ar
    23    28    29   ar
    24    29    30   ar
    25    30    31    1
    26    30    32   ar
    27     5     6   ar
    28     6     7    1
    29    16    17    2
    30    17    18    1
    31    18    10    1
    32    17    13    1
    33     6     1   ar
    34    32    26   ar
    35    21    22    1
@<TRIPOS>MOLECULE
*****
 32 35 0 0 0
SMALL
GASTEIGER

@<TRIPOS>ATOM
      1 C          64.1686   86.1991   15.4758 C.ar    1  UNL1        0.0678
      2 C          63.4421   85.5660   16.6253 C.ar    1  UNL1        0.0055
      3 C          62.6676   86.4199   17.5849 C.ar    1  UNL1        0.0016
      4 C          62.6195   87.9071   17.3951 C.ar    1  UNL1        0.0181
      5 C          63.3461   88.5402   16.2455 C.ar    1  UNL1        0.0922
      6 C          64.1206   87.6863   15.2859 C.ar    1  UNL1        0.1576
      7 F          64.8470   88.3195   14.1364 F       1  UNL1       -0.2027
      8 C          64.9431   85.3452   14.5162 C.2     1  UNL1        0.2014
      9 O          66.4321   85.2255   14.6521 O.2     1  UNL1       -0.2864
     10 C          61.8044   86.9249   11.1443 C.2     1  UNL1        0.0974
     11 C          61.3289   85.8317   10.2340 C.2     1  UNL1        0.2421
     12 N          61.8261   84.4292   10.4228 N.2     1  UNL1       -0.0304
     13 C          62.7989   84.1198   11.5218 C.2     1  UNL1        0.3721
     14 N          63.4591   82.8420   11.9477 N.2     1  UNL1       -0.0307
     15 C          64.3427   83.1455   13.1212 C.2     1  UNL1        0.2390
     16 C          64.2286   84.6108   13.4207 C.2     1  UNL1        0.0895
     17 C          63.2744   85.2130   12.4321 C.2     1  UNL1        0.0782
     18 C          62.7772   86.6155   12.2434 C.3     1  UNL1        0.0751
     19 N          60.8100   89.7300   10.7669 N.1     1  UNL1       -0.1910
     20 C          61.3072   88.3274   10.9556 C.1     1  UNL1        0.1003
     21 N          63.2980   90.0274   16.0557 N.pl3   1  UNL1       -0.2128
     22 H          62.9525   90.6045   16.7746 H       1  UNL1        0.1738
     23 S          63.7763   90.6353   14.7705 S.O2    1  UNL1        0.0737
     24 O          64.9804   91.1829   15.4776 O.2     1  UNL1       -0.1499
     25 O          62.5721   90.0877   14.0633 O.2     1  UNL1       -0.1499
     26 C          64.2545   91.2432   13.4852 C.ar    1  UNL1        0.1274
     27 C          65.5030   92.0745   13.4677 C.ar    1  UNL1        0.0203
     28 C          65.9813   92.6823   12.1825 C.ar    1  UNL1        0.0037
     29 C          65.2111   92.4590   10.9149 C.ar    1  UNL1        0.0297
     30 C          63.9627   91.6277   10.9324 C.ar    1  UNL1        0.1415
     31 F          63.1925   91.4043    9.6647 F       1  UNL1       -0.2041
     32 C          63.4844   91.0198   12.2176 C.ar    1  UNL1        0.0498
@<TRIPOS>BOND
     1    19    20    3
     2    20    10    1
     3    10    11    2
     4    11    12    1
     5    12    13    2
     6    13    14    1
     7    14    15    2
     8    15    16    1
     9    16     8    1
    10     8     9    2
    11     8     1    1
    12     1     2   ar
    13     2     3   ar
    14     3     4   ar
    15     4     5   ar
    16     5    21    1
    17    21    23    1
    18    23    24    2
    19    23    25    2
    20    23    26    1
    21    26    27   ar
    22    27    28   ar
    23    28    29   ar
    24    29    30   ar
    25    30    31    1
    26    30    32   ar
    27     5     6   ar
    28     6     7    1
    29    16    17    2
    30    17    18    1
    31    18    10    1
    32    17    13    1
    33     6     1   ar
    34    32    26   ar
    35    21    22    1
@<TRIPOS>MOLECULE
*****
 32 35 0 0 0
SMALL
GASTEIGER

@<TRIPOS>ATOM
      1 C          61.7061   86.3919    9.5368 C.ar    1  UNL1        0.0678
      2 C          60.5064   86.0820    8.6915 C.ar    1  UNL1        0.0055
      3 C          59.5712   87.1820    8.2847 C.ar    1  UNL1        0.0016
      4 C          59.8357   88.5919    8.7232 C.ar    1  UNL1        0.0181
      5 C          61.0355   88.9017    9.5685 C.ar    1  UNL1        0.0922
      6 C          61.9707   87.8018    9.9754 C.ar    1  UNL1        0.1576
      7 F          63.1704   88.1117   10.8207 F       1  UNL1       -0.2027
      8 C          62.6413   85.2919    9.9437 C.2     1  UNL1        0.2014
      9 O          63.5209   84.6382    8.9195 O.2     1  UNL1       -0.2864
     10 C          62.7904   80.8276   11.8837 C.2     1  UNL1        0.0974
     11 C          62.8393   80.8456   13.3828 C.2     1  UNL1        0.2421
     12 N          62.8384   82.1533   14.1176 N.2     1  UNL1       -0.0304
     13 C          62.7886   83.4430   13.3533 C.2     1  UNL1        0.3721
     14 N          62.7759   84.8748   13.8002 N.2     1  UNL1       -0.0307
     15 C          62.7192   85.7417   12.5774 C.2     1  UNL1        0.2390
     16 C          62.6968   84.8457   11.3747 C.2     1  UNL1        0.0895
     17 C          62.7397   83.4250   11.8542 C.2     1  UNL1        0.0782
     18 C          62.7406   82.1173   11.1194 C.3     1  UNL1        0.0751
     19 N          62.7922   78.2122   10.4142 N.1     1  UNL1       -0.1910
     20 C          62.7913   79.5199   11.1489 C.1     1  UNL1        0.1003
     21 N          61.3000   90.3116   10.0070 N.pl3   1  UNL1       -0.2128
     22 H          60.8249   91.0585    9.5761 H       1  UNL1        0.1738
     23 S          62.2884   90.5835   11.1021 S.O2    1  UNL1        0.0737
     24 O          63.2747   91.0824   10.0881 O.2     1  UNL1       -0.1499
     25 O          61.3022   90.0846   12.1162 O.2     1  UNL1       -0.1499
     26 C          63.2768   90.8554   12.1972 C.ar    1  UNL1        0.1274
     27 C          64.4561   91.7457   11.9390 C.ar    1  UNL1        0.0203
     28 C          65.4445   92.0176   13.0340 C.ar    1  UNL1        0.0037
     29 C          65.2536   91.3993   14.3873 C.ar    1  UNL1        0.0297
     30 C          64.0743   90.5091   14.6455 C.ar    1  UNL1        0.1415
     31 F          63.8834   89.8908   15.9988 F       1  UNL1       -0.2041
     32 C          63.0859   90.2372   13.5505 C.ar    1  UNL1        0.0498
@<TRIPOS>BOND
     1    19    20    3
     2    20    10    1
     3    10    11    2
     4    11    12    1
     5    12    13    2
     6    13    14    1
     7    14    15    2
     8    15    16    1
     9    16     8    1
    10     8     9    2
    11     8     1    1
    12     1     2   ar
    13     2     3   ar
    14     3     4   ar
    15     4     5   ar
    16     5    21    1
    17    21    23    1
    18    23    24    2
    19    23    25    2
    20    23    26    1
    21    26    27   ar
    22    27    28   ar
    23    28    29   ar
    24    29    30   ar
    25    30    31    1
    26    30    32   ar
    27     5     6   ar
    28     6     7    1
    29    16    17    2
    30    17    18    1
    31    18    10    1
    32    17    13    1
    33     6     1   ar
    34    32    26   ar
    35    21    22    1
@<TRIPOS>MOLECULE
*****
 32 35 0 0 0
SMALL
GASTEIGER

@<TRIPOS>ATOM
      1 C          61.8910   86.3867   10.4113 C.ar    1  UNL1        0.0678
      2 C          60.8108   86.2863    9.3755 C.ar    1  UNL1        0.0055
      3 C          59.9139   87.4592    9.1110 C.ar    1  UNL1        0.0016
      4 C          60.0972   88.7325    9.8823 C.ar    1  UNL1        0.0181
      5 C          61.1775   88.8329   10.9182 C.ar    1  UNL1        0.0922
      6 C          62.0744   87.6601   11.1827 C.ar    1  UNL1        0.1576
      7 F          63.1546   87.7606   12.2186 F       1  UNL1       -0.2027
      8 C          62.7879   85.2139   10.6758 C.2     1  UNL1        0.2014
      9 O          63.6439   84.6610    9.5751 O.2     1  UNL1       -0.2864
     10 C          62.7805   80.5429   12.0536 C.2     1  UNL1        0.0974
     11 C          62.8312   80.3753   13.5433 C.2     1  UNL1        0.2421
     12 N          62.8772   81.5822   14.4327 N.2     1  UNL1       -0.0304
     13 C          62.8725   82.9569   13.8325 C.2     1  UNL1        0.3721
     14 N          62.9109   84.3226   14.4515 N.2     1  UNL1       -0.0307
     15 C          62.8839   85.3343   13.3444 C.2     1  UNL1        0.2390
     16 C          62.8288   84.5939   12.0411 C.2     1  UNL1        0.0895
     17 C          62.8218   83.1245   12.3427 C.2     1  UNL1        0.0782
     18 C          62.7758   81.9175   11.4533 C.3     1  UNL1        0.0751
     19 N          62.6884   78.1289   10.2747 N.1     1  UNL1       -0.1910
     20 C          62.7344   79.3359   11.1642 C.1     1  UNL1        0.1003
     21 N          61.3609   90.1063   11.6896 N.pl3   1  UNL1       -0.2128
     22 H          60.5847   90.5447   12.1075 H       1  UNL1        0.1738
     23 S          62.7267   90.7117   11.8241 S.O2    1  UNL1        0.0737
     24 O          62.7374   91.0143   10.3551 O.2     1  UNL1       -0.1499
     25 O          62.7160   90.4091   13.2933 O.2     1  UNL1       -0.1499
     26 C          64.0925   91.3170   11.9588 C.ar    1  UNL1        0.1274
     27 C          64.7079   92.0445   10.8003 C.ar    1  UNL1        0.0203
     28 C          66.0737   92.6499   10.9349 C.ar    1  UNL1        0.0037
     29 C          66.8241   92.5278   12.2279 C.ar    1  UNL1        0.0297
     30 C          66.2087   91.8003   13.3864 C.ar    1  UNL1        0.1415
     31 F          66.9591   91.6782   14.6795 F       1  UNL1       -0.2041
     32 C          64.8429   91.1949   13.2518 C.ar    1  UNL1        0.0498
@<TRIPOS>BOND
     1    19    20    3
     2    20    10    1
     3    10    11    2
     4    11    12    1
     5    12    13    2
     6    13    14    1
     7    14    15    2
     8    15    16    1
     9    16     8    1
    10     8     9    2
    11     8     1    1
    12     1     2   ar
    13     2     3   ar
    14     3     4   ar
    15     4     5   ar
    16     5    21    1
    17    21    23    1
    18    23    24    2
    19    23    25    2
    20    23    26    1
    21    26    27   ar
    22    27    28   ar
    23    28    29   ar
    24    29    30   ar
    25    30    31    1
    26    30    32   ar
    27     5     6   ar
    28     6     7    1
    29    16    17    2
    30    17    18    1
    31    18    10    1
    32    17    13    1
    33     6     1   ar
    34    32    26   ar
    35    21    22    1
@<TRIPOS>MOLECULE
*****
 32 35 0 0 0
SMALL
GASTEIGER

@<TRIPOS>ATOM
      1 C          63.2719   88.3442   16.4185 C.ar    1  UNL1        0.0678
      2 C          62.4250   87.9539   17.5934 C.ar    1  UNL1        0.0055
      3 C          62.2657   86.5071   17.9556 C.ar    1  UNL1        0.0016
      4 C          62.9533   85.4504   17.1428 C.ar    1  UNL1        0.0181
      5 C          63.8002   85.8407   15.9678 C.ar    1  UNL1        0.0922
      6 C          63.9595   87.2875   15.6057 C.ar    1  UNL1        0.1576
      7 F          64.8064   87.6777   14.4307 F       1  UNL1       -0.2027
      8 C          63.4312   89.7911   16.0564 C.2     1  UNL1        0.2014
      9 O          63.3831   90.8416   17.1260 O.2     1  UNL1       -0.2864
     10 C          67.0006   92.3428   13.9434 C.2     1  UNL1        0.0974
     11 C          66.8041   92.5046   12.4652 C.2     1  UNL1        0.2421
     12 N          65.6012   91.9059   11.7985 N.2     1  UNL1       -0.0304
     13 C          64.5947   91.1454   12.6100 C.2     1  UNL1        0.3721
     14 N          63.3208   90.4491   12.2327 N.2     1  UNL1       -0.0307
     15 C          62.7299   89.8570   13.4778 C.2     1  UNL1        0.2390
     16 C          63.6386   90.1874   14.6246 C.2     1  UNL1        0.0895
     17 C          64.7911   90.9837   14.0882 C.2     1  UNL1        0.0782
     18 C          65.9940   91.5824   14.7549 C.3     1  UNL1        0.0751
     19 N          69.4064   93.5402   15.2769 N.1     1  UNL1       -0.1910
     20 C          68.2035   92.9415   14.6102 C.1     1  UNL1        0.1003
     21 N          64.4878   84.7840   15.1551 N.pl3   1  UNL1       -0.2128
     22 H          65.1695   84.2085   15.5715 H       1  UNL1        0.1738
     23 S          64.1368   84.6040   13.7079 S.O2    1  UNL1        0.0737
     24 O          65.5589   84.2324   13.4091 O.2     1  UNL1       -0.1499
     25 O          62.7146   84.9757   14.0066 O.2     1  UNL1       -0.1499
     26 C          63.7857   84.4241   12.2606 C.ar    1  UNL1        0.1274
     27 C          64.4042   83.3081   11.4720 C.ar    1  UNL1        0.0203
     28 C          64.0532   83.1281   10.0248 C.ar    1  UNL1        0.0037
     29 C          63.0836   84.0641    9.3663 C.ar    1  UNL1        0.0297
     30 C          62.4650   85.1801   10.1549 C.ar    1  UNL1        0.1415
     31 F          61.4954   86.1162    9.4963 F       1  UNL1       -0.2041
     32 C          62.8161   85.3601   11.6020 C.ar    1  UNL1        0.0498
@<TRIPOS>BOND
     1    19    20    3
     2    20    10    1
     3    10    11    2
     4    11    12    1
     5    12    13    2
     6    13    14    1
     7    14    15    2
     8    15    16    1
     9    16     8    1
    10     8     9    2
    11     8     1    1
    12     1     2   ar
    13     2     3   ar
    14     3     4   ar
    15     4     5   ar
    16     5    21    1
    17    21    23    1
    18    23    24    2
    19    23    25    2
    20    23    26    1
    21    26    27   ar
    22    27    28   ar
    23    28    29   ar
    24    29    30   ar
    25    30    31    1
    26    30    32   ar
    27     5     6   ar
    28     6     7    1
    29    16    17    2
    30    17    18    1
    31    18    10    1
    32    17    13    1
    33     6     1   ar
    34    32    26   ar
    35    21    22    1
@<TRIPOS>MOLECULE
*****
 32 35 0 0 0
SMALL
GASTEIGER

@<TRIPOS>ATOM
      1 C          62.1920   88.4947   11.0351 C.ar    1  UNL1        0.0678
      2 C          61.1930   87.9377   10.0647 C.ar    1  UNL1        0.0055
      3 C          60.9714   86.4564    9.9837 C.ar    1  UNL1        0.0016
      4 C          61.7487   85.5320   10.8732 C.ar    1  UNL1        0.0181
      5 C          62.7477   86.0891   11.8437 C.ar    1  UNL1        0.0922
      6 C          62.9694   87.5704   11.9247 C.ar    1  UNL1        0.1576
      7 F          63.9684   88.1273   12.8951 F       1  UNL1       -0.2027
      8 C          62.4136   89.9760   11.1161 C.2     1  UNL1        0.2014
      9 O          61.9317   90.8680   10.0106 O.2     1  UNL1       -0.2864
     10 C          66.1862   93.0442   11.3810 C.2     1  UNL1        0.0974
     11 C          66.5687   93.3760   12.7929 C.2     1  UNL1        0.2421
     12 N          65.8074   92.7750   13.9372 N.2     1  UNL1       -0.0304
     13 C          64.6638   91.8421   13.6695 C.2     1  UNL1        0.3721
     14 N          63.7360   91.1024   14.5871 N.2     1  UNL1       -0.0307
     15 C          62.7801   90.3133   13.7423 C.2     1  UNL1        0.2390
     16 C          63.1172   90.5653   12.3025 C.2     1  UNL1        0.0895
     17 C          64.2814   91.5102   12.2576 C.2     1  UNL1        0.0782
     18 C          65.0426   92.1113   11.1133 C.3     1  UNL1        0.0751
     19 N          67.7087   94.2462    9.0925 N.1     1  UNL1       -0.1910
     20 C          66.9474   93.6452   10.2367 C.1     1  UNL1        0.1003
     21 N          63.5251   85.1647   12.7332 N.pl3   1  UNL1       -0.2128
     22 H          64.2062   85.5271   13.3447 H       1  UNL1        0.1738
     23 S          63.2647   83.6880   12.6909 S.O2    1  UNL1        0.0737
     24 O          62.2728   83.8309   13.8069 O.2     1  UNL1       -0.1499
     25 O          64.2567   83.5451   11.5749 O.2     1  UNL1       -0.1499
     26 C          63.0044   82.2113   12.6486 C.ar    1  UNL1        0.1274
     27 C          62.6871   81.4693   13.9130 C.ar    1  UNL1        0.0203
     28 C          62.4268   79.9926   13.8708 C.ar    1  UNL1        0.0037
     29 C          62.4837   79.2581   12.5642 C.ar    1  UNL1        0.0297
     30 C          62.8010   80.0002   11.2998 C.ar    1  UNL1        0.1415
     31 F          62.8579   79.2656    9.9932 F       1  UNL1       -0.2041
     32 C          63.0613   81.4768   11.3420 C.ar    1  UNL1        0.0498
@<TRIPOS>BOND
     1    19    20    3
     2    20    10    1
     3    10    11    2
     4    11    12    1
     5    12    13    2
     6    13    14    1
     7    14    15    2
     8    15    16    1
     9    16     8    1
    10     8     9    2
    11     8     1    1
    12     1     2   ar
    13     2     3   ar
    14     3     4   ar
    15     4     5   ar
    16     5    21    1
    17    21    23    1
    18    23    24    2
    19    23    25    2
    20    23    26    1
    21    26    27   ar
    22    27    28   ar
    23    28    29   ar
    24    29    30   ar
    25    30    31    1
    26    30    32   ar
    27     5     6   ar
    28     6     7    1
    29    16    17    2
    30    17    18    1
    31    18    10    1
    32    17    13    1
    33     6     1   ar
    34    32    26   ar
    35    21    22    1
