@<TRIPOS>MOLECULE
*****
 32 35 0 0 0
SMALL
GASTEIGER

@<TRIPOS>ATOM
      1 C          59.4896   96.7938   -5.9386 C.3     1  UNL1        0.0177
      2 C          60.4032   95.8392   -5.2286 C.3     1  UNL1        0.0623
      3 C          61.5571   95.2206   -5.9607 C.3     1  UNL1        0.0384
      4 C          62.4707   94.2660   -5.2508 C.2     1  UNL1       -0.0343
      5 C          62.2305   93.9299   -3.8088 C.2     1  UNL1       -0.0106
      6 C          63.1441   92.9753   -3.0990 C.2     1  UNL1       -0.0020
      7 C          64.2980   92.3567   -3.8310 C.2     1  UNL1        0.0169
      8 C          64.5382   92.6928   -5.2730 C.2     1  UNL1        0.0896
      9 N          65.5860   92.2426   -6.2474 N.2     1  UNL1       -0.1520
     10 N          65.3200   92.9191   -7.5595 N.2     1  UNL1       -0.1507
     11 C          64.1077   93.7873   -7.3960 C.2     1  UNL1        0.1054
     12 C          63.6246   93.6474   -5.9829 C.3     1  UNL1        0.1032
     13 C          61.0766   94.5485   -3.0767 C.3     1  UNL1        0.1069
     14 N          60.1630   95.5031   -3.7866 N.3     1  UNL1       -0.2632
     15 C          60.8363   94.2124   -1.6348 C.ar    1  UNL1        0.0512
     16 C          59.9117   93.0889   -1.2704 C.ar    1  UNL1        0.1399
     17 F          59.2272   92.3014   -2.3481 F       1  UNL1       -0.2044
     18 C          59.6715   92.7528    0.1716 C.ar    1  UNL1        0.0295
     19 C          60.3560   93.5403    1.2493 C.ar    1  UNL1        0.0045
     20 C          61.2806   94.6638    0.8850 C.ar    1  UNL1        0.0295
     21 C          61.5208   94.9999   -0.5571 C.ar    1  UNL1        0.1399
     22 F          62.4455   96.1234   -0.9214 F       1  UNL1       -0.2044
     23 C          60.1158   93.2042    2.6913 C.2     1  UNL1        0.0013
     24 C          59.0489   92.2179    3.0638 C.2     1  UNL1        0.0151
     25 C          58.8087   91.8818    4.5058 C.2     1  UNL1        0.0729
     26 O          59.8613   91.1590    5.2929 O.co2   1  UNL1       -0.5446
     27 O          57.5157   92.2685    5.1606 O.co2   1  UNL1       -0.5446
     28 C          59.0091   96.1217   -3.0545 C.3     1  UNL1        0.1398
     29 C          57.8109   95.2904   -2.7038 C.3     1  UNL1        0.2786
     30 C          56.6126   94.4589   -2.3532 C.3     1  UNL1        0.0737
     31 F          57.7402   94.7956   -4.1181 F       1  UNL1       -0.2028
     32 F          57.8815   95.7850   -1.2896 F       1  UNL1       -0.2028
@<TRIPOS>UNITY_ATOM_ATTR
26 1
charge -1
@<TRIPOS>BOND
     1     2     1    1
     2     2     3    1
     3     3     4    1
     4     4     5    2
     5     5     6    1
     6     6     7    2
     7     7     8    1
     8     8     9    2
     9     9    10    1
    10    10    11    2
    11    11    12    1
    12     5    13    1
    13    13    15    1
    14    15    16   ar
    15    16    17    1
    16    16    18   ar
    17    18    19   ar
    18    19    23    1
    19    23    24    2
    20    24    25    1
    21    25    26   ar
    22    25    27   ar
    23    19    20   ar
    24    20    21   ar
    25    21    22    1
    26    13    14    1
    27    14    28    1
    28    28    29    1
    29    29    30    1
    30    29    31    1
    31    29    32    1
    32    14     2    1
    33    12     4    1
    34    21    15   ar
    35    12     8    1
@<TRIPOS>MOLECULE
*****
 32 35 0 0 0
SMALL
GASTEIGER

@<TRIPOS>ATOM
      1 C          59.9010   87.3735    9.7862 C.3     1  UNL1        0.0177
      2 C          61.0164   87.0452   10.7340 C.3     1  UNL1        0.0623
      3 C          61.3402   85.6137   11.0440 C.3     1  UNL1        0.0384
      4 C          62.4555   85.2854   11.9917 C.2     1  UNL1       -0.0343
      5 C          63.2471   86.3884   12.6294 C.2     1  UNL1       -0.0106
      6 C          64.3623   86.0601   13.5771 C.2     1  UNL1       -0.0020
      7 C          64.6862   84.6286   13.8872 C.2     1  UNL1        0.0169
      8 C          63.8947   83.5255   13.2494 C.2     1  UNL1        0.0896
      9 N          63.9825   82.0324   13.3624 N.2     1  UNL1       -0.1520
     10 N          62.9215   81.4380   12.4845 N.2     1  UNL1       -0.1507
     11 C          62.1778   82.5637   11.8289 C.2     1  UNL1        0.1054
     12 C          62.7793   83.8539   12.3017 C.3     1  UNL1        0.1032
     13 C          62.9232   87.8199   12.3194 C.3     1  UNL1        0.1069
     14 N          61.8079   88.1482   11.3717 N.3     1  UNL1       -0.2632
     15 C          63.7147   88.9230   12.9571 C.ar    1  UNL1        0.0512
     16 C          64.0709   88.8462   14.4122 C.ar    1  UNL1        0.1399
     17 F          63.6354   87.6663   15.2296 F       1  UNL1       -0.2044
     18 C          64.8624   89.9492   15.0499 C.ar    1  UNL1        0.0295
     19 C          65.2979   91.1292   14.2324 C.ar    1  UNL1        0.0045
     20 C          64.9418   91.2060   12.7774 C.ar    1  UNL1        0.0295
     21 C          64.1502   90.1029   12.1397 C.ar    1  UNL1        0.1399
     22 F          63.7941   90.1798   10.6846 F       1  UNL1       -0.2044
     23 C          66.0894   92.2323   14.8701 C.2     1  UNL1        0.0013
     24 C          67.5886   92.1953   14.8374 C.2     1  UNL1        0.0151
     25 C          68.3801   93.2983   15.4751 C.2     1  UNL1        0.0729
     26 O          67.7573   94.1477   16.5431 O.co2   1  UNL1       -0.5446
     27 O          69.7946   93.5520   15.0447 O.co2   1  UNL1       -0.5446
     28 C          61.4841   89.5797   11.0616 C.3     1  UNL1        0.1398
     29 C          60.1307   90.1323   11.3976 C.3     1  UNL1        0.2786
     30 C          58.7772   90.6848   11.7336 C.3     1  UNL1        0.0737
     31 F          59.9582   90.5750    9.9749 F       1  UNL1       -0.2028
     32 F          60.3031   89.6896   12.8203 F       1  UNL1       -0.2028
@<TRIPOS>UNITY_ATOM_ATTR
26 1
charge -1
@<TRIPOS>BOND
     1     2     1    1
     2     2     3    1
     3     3     4    1
     4     4     5    2
     5     5     6    1
     6     6     7    2
     7     7     8    1
     8     8     9    2
     9     9    10    1
    10    10    11    2
    11    11    12    1
    12     5    13    1
    13    13    15    1
    14    15    16   ar
    15    16    17    1
    16    16    18   ar
    17    18    19   ar
    18    19    23    1
    19    23    24    2
    20    24    25    1
    21    25    26   ar
    22    25    27   ar
    23    19    20   ar
    24    20    21   ar
    25    21    22    1
    26    13    14    1
    27    14    28    1
    28    28    29    1
    29    29    30    1
    30    29    31    1
    31    29    32    1
    32    14     2    1
    33    12     4    1
    34    21    15   ar
    35    12     8    1
@<TRIPOS>MOLECULE
*****
 32 35 0 0 0
SMALL
GASTEIGER

@<TRIPOS>ATOM
      1 C          63.7056   85.3547   14.0756 C.3     1  UNL1        0.0177
      2 C          63.5919   86.7279   13.4829 C.3     1  UNL1        0.0623
      3 C          64.3863   87.8619   14.0599 C.3     1  UNL1        0.0384
      4 C          64.2726   89.2352   13.4673 C.2     1  UNL1       -0.0343
      5 C          63.3645   89.4745   12.2976 C.2     1  UNL1       -0.0106
      6 C          63.2508   90.8477   11.7050 C.2     1  UNL1       -0.0020
      7 C          64.0452   91.9817   12.2820 C.2     1  UNL1        0.0169
      8 C          64.9533   91.7425   13.4517 C.2     1  UNL1        0.0896
      9 N          65.8530   92.6581   14.2276 N.2     1  UNL1       -0.1520
     10 N          66.5227   91.8508   15.2998 N.2     1  UNL1       -0.1507
     11 C          66.0370   90.4361   15.1865 C.2     1  UNL1        0.1054
     12 C          65.0670   90.3692   14.0443 C.3     1  UNL1        0.1032
     13 C          62.5701   88.3404   11.7206 C.3     1  UNL1        0.1069
     14 N          62.6838   86.9672   12.3132 N.3     1  UNL1       -0.2632
     15 C          61.6620   88.5797   10.5510 C.ar    1  UNL1        0.0512
     16 C          61.9474   87.9227    9.2330 C.ar    1  UNL1        0.1399
     17 F          63.1410   87.0263    9.0848 F       1  UNL1       -0.2044
     18 C          61.0393   88.1620    8.0634 C.ar    1  UNL1        0.0295
     19 C          59.8457   89.0583    8.2117 C.ar    1  UNL1        0.0045
     20 C          59.5603   89.7153    9.5295 C.ar    1  UNL1        0.0295
     21 C          60.4684   89.4760   10.6992 C.ar    1  UNL1        0.1399
     22 F          60.1830   90.1330   12.0171 F       1  UNL1       -0.2044
     23 C          58.9376   89.2976    7.0420 C.2     1  UNL1        0.0013
     24 C          58.8330   90.6683    6.4419 C.2     1  UNL1        0.0151
     25 C          57.9249   90.9076    5.2722 C.2     1  UNL1        0.0729
     26 O          56.5056   90.4240    5.3134 O.co2   1  UNL1       -0.5446
     27 O          58.4362   91.6306    4.0614 O.co2   1  UNL1       -0.5446
     28 C          61.8894   85.8331   11.7362 C.3     1  UNL1        0.1398
     29 C          62.5661   84.5368   11.4025 C.3     1  UNL1        0.2786
     30 C          63.2429   83.2404   11.0688 C.3     1  UNL1        0.0737
     31 F          61.9910   83.9175   12.6418 F       1  UNL1       -0.2028
     32 F          63.1412   85.1560   10.1633 F       1  UNL1       -0.2028
@<TRIPOS>UNITY_ATOM_ATTR
26 1
charge -1
@<TRIPOS>BOND
     1     2     1    1
     2     2     3    1
     3     3     4    1
     4     4     5    2
     5     5     6    1
     6     6     7    2
     7     7     8    1
     8     8     9    2
     9     9    10    1
    10    10    11    2
    11    11    12    1
    12     5    13    1
    13    13    15    1
    14    15    16   ar
    15    16    17    1
    16    16    18   ar
    17    18    19   ar
    18    19    23    1
    19    23    24    2
    20    24    25    1
    21    25    26   ar
    22    25    27   ar
    23    19    20   ar
    24    20    21   ar
    25    21    22    1
    26    13    14    1
    27    14    28    1
    28    28    29    1
    29    29    30    1
    30    29    31    1
    31    29    32    1
    32    14     2    1
    33    12     4    1
    34    21    15   ar
    35    12     8    1
@<TRIPOS>MOLECULE
*****
 32 35 0 0 0
SMALL
GASTEIGER

@<TRIPOS>ATOM
      1 C          57.9551   96.7271   -5.1347 C.3     1  UNL1        0.0177
      2 C          59.1930   96.2055   -4.4670 C.3     1  UNL1        0.0623
      3 C          60.5116   96.2664   -5.1793 C.3     1  UNL1        0.0384
      4 C          61.7495   95.7449   -4.5117 C.2     1  UNL1       -0.0343
      5 C          61.6687   95.1625   -3.1318 C.2     1  UNL1       -0.0106
      6 C          62.9065   94.6409   -2.4642 C.2     1  UNL1       -0.0020
      7 C          64.2253   94.7018   -3.1765 C.2     1  UNL1        0.0169
      8 C          64.3061   95.2843   -4.5564 C.2     1  UNL1        0.0896
      9 N          65.4570   95.4764   -5.4989 N.2     1  UNL1       -0.1520
     10 N          64.9305   96.1166   -6.7491 N.2     1  UNL1       -0.1507
     11 C          63.4541   96.3203   -6.5792 C.2     1  UNL1        0.1054
     12 C          63.0682   95.8058   -5.2240 C.3     1  UNL1        0.1032
     13 C          60.3500   95.1016   -2.4195 C.3     1  UNL1        0.1069
     14 N          59.1122   95.6231   -3.0870 N.3     1  UNL1       -0.2632
     15 C          60.2692   94.5191   -1.0395 C.ar    1  UNL1        0.0512
     16 C          60.4852   95.3956    0.1584 C.ar    1  UNL1        0.1399
     17 F          60.7819   96.8547   -0.0236 F       1  UNL1       -0.2044
     18 C          60.4044   94.8132    1.5384 C.ar    1  UNL1        0.0295
     19 C          60.1076   93.3541    1.7203 C.ar    1  UNL1        0.0045
     20 C          59.8917   92.4776    0.5225 C.ar    1  UNL1        0.0295
     21 C          59.9725   93.0601   -0.8575 C.ar    1  UNL1        0.1399
     22 F          59.7565   92.1835   -2.0554 F       1  UNL1       -0.2044
     23 C          60.0269   92.7716    3.1002 C.2     1  UNL1        0.0013
     24 C          58.7924   92.0379    3.5335 C.2     1  UNL1        0.0151
     25 C          58.7116   91.4554    4.9134 C.2     1  UNL1        0.0729
     26 O          57.3897   91.3762    5.6179 O.co2   1  UNL1       -0.5446
     27 O          59.9529   90.9522    5.5889 O.co2   1  UNL1       -0.5446
     28 C          57.7935   95.5622   -2.3747 C.3     1  UNL1        0.1398
     29 C          57.1140   94.2414   -2.1662 C.3     1  UNL1        0.2786
     30 C          56.4344   92.9204   -1.9578 C.3     1  UNL1        0.0737
     31 F          57.2794   93.9262   -3.6234 F       1  UNL1       -0.2028
     32 F          56.9485   94.5564   -0.7091 F       1  UNL1       -0.2028
@<TRIPOS>UNITY_ATOM_ATTR
26 1
charge -1
@<TRIPOS>BOND
     1     2     1    1
     2     2     3    1
     3     3     4    1
     4     4     5    2
     5     5     6    1
     6     6     7    2
     7     7     8    1
     8     8     9    2
     9     9    10    1
    10    10    11    2
    11    11    12    1
    12     5    13    1
    13    13    15    1
    14    15    16   ar
    15    16    17    1
    16    16    18   ar
    17    18    19   ar
    18    19    23    1
    19    23    24    2
    20    24    25    1
    21    25    26   ar
    22    25    27   ar
    23    19    20   ar
    24    20    21   ar
    25    21    22    1
    26    13    14    1
    27    14    28    1
    28    28    29    1
    29    29    30    1
    30    29    31    1
    31    29    32    1
    32    14     2    1
    33    12     4    1
    34    21    15   ar
    35    12     8    1
@<TRIPOS>MOLECULE
*****
 32 35 0 0 0
SMALL
GASTEIGER

@<TRIPOS>ATOM
      1 C          60.9432   89.3565    8.9388 C.3     1  UNL1        0.0177
      2 C          61.6861   88.6910   10.0592 C.3     1  UNL1        0.0623
      3 C          62.2501   89.5148   11.1787 C.3     1  UNL1        0.0384
      4 C          62.9930   88.8493   12.2991 C.2     1  UNL1       -0.0343
      5 C          63.1718   87.3601   12.3001 C.2     1  UNL1       -0.0106
      6 C          63.9147   86.6946   13.4204 C.2     1  UNL1       -0.0020
      7 C          64.4787   87.5185   14.5399 C.2     1  UNL1        0.0169
      8 C          64.2999   89.0077   14.5389 C.2     1  UNL1        0.0896
      9 N          64.7409   90.0722   15.4993 N.2     1  UNL1       -0.1520
     10 N          64.2707   91.3955   14.9725 N.2     1  UNL1       -0.1507
     11 C          63.5389   91.1489   13.6865 C.2     1  UNL1        0.1054
     12 C          63.5570   89.6732   13.4185 C.3     1  UNL1        0.1032
     13 C          62.6078   86.5362   11.1805 C.3     1  UNL1        0.1069
     14 N          61.8649   87.2017   10.0602 N.3     1  UNL1       -0.2632
     15 C          62.7866   85.0470   11.1815 C.ar    1  UNL1        0.0512
     16 C          63.4224   84.3670   10.0052 C.ar    1  UNL1        0.1399
     17 F          63.8794   85.1765    8.8280 F       1  UNL1       -0.2044
     18 C          63.6013   82.8778   10.0062 C.ar    1  UNL1        0.0295
     19 C          63.1443   82.0683   11.1836 C.ar    1  UNL1        0.0045
     20 C          62.5085   82.7481   12.3598 C.ar    1  UNL1        0.0295
     21 C          62.3297   84.2375   12.3588 C.ar    1  UNL1        0.1399
     22 F          61.6939   84.9173   13.5350 F       1  UNL1       -0.2044
     23 C          63.3232   80.5790   11.1845 C.2     1  UNL1        0.0013
     24 C          63.0721   79.7927    9.9321 C.2     1  UNL1        0.0151
     25 C          63.2510   78.3034    9.9331 C.2     1  UNL1        0.0729
     26 O          64.2660   77.6693    9.0288 O.co2   1  UNL1       -0.5446
     27 O          62.4147   77.4482   10.8384 O.co2   1  UNL1       -0.5446
     28 C          61.3009   86.3778    8.9407 C.3     1  UNL1        0.1398
     29 C          59.9370   86.6848    8.3970 C.3     1  UNL1        0.2786
     30 C          58.5731   86.9917    7.8534 C.3     1  UNL1        0.0737
     31 F          59.4115   86.8257    9.7949 F       1  UNL1       -0.2028
     32 F          60.4624   86.5439    6.9992 F       1  UNL1       -0.2028
@<TRIPOS>UNITY_ATOM_ATTR
26 1
charge -1
@<TRIPOS>BOND
     1     2     1    1
     2     2     3    1
     3     3     4    1
     4     4     5    2
     5     5     6    1
     6     6     7    2
     7     7     8    1
     8     8     9    2
     9     9    10    1
    10    10    11    2
    11    11    12    1
    12     5    13    1
    13    13    15    1
    14    15    16   ar
    15    16    17    1
    16    16    18   ar
    17    18    19   ar
    18    19    23    1
    19    23    24    2
    20    24    25    1
    21    25    26   ar
    22    25    27   ar
    23    19    20   ar
    24    20    21   ar
    25    21    22    1
    26    13    14    1
    27    14    28    1
    28    28    29    1
    29    29    30    1
    30    29    31    1
    31    29    32    1
    32    14     2    1
    33    12     4    1
    34    21    15   ar
    35    12     8    1
@<TRIPOS>MOLECULE
*****
 32 35 0 0 0
SMALL
GASTEIGER

@<TRIPOS>ATOM
      1 C          60.3524   93.7156   -3.2534 C.3     1  UNL1        0.0177
      2 C          61.2071   93.8855   -2.0324 C.3     1  UNL1        0.0623
      3 C          62.4982   94.6441   -2.1203 C.3     1  UNL1        0.0384
      4 C          63.3528   94.8140   -0.8994 C.2     1  UNL1       -0.0343
      5 C          62.9165   94.2254    0.4095 C.2     1  UNL1       -0.0106
      6 C          63.7711   94.3953    1.6303 C.2     1  UNL1       -0.0020
      7 C          65.0622   95.1539    1.5424 C.2     1  UNL1        0.0169
      8 C          65.4986   95.7425    0.2336 C.2     1  UNL1        0.0896
      9 N          66.7113   96.5347   -0.1560 N.2     1  UNL1       -0.1520
     10 N          66.6061   96.8543   -1.6178 N.2     1  UNL1       -0.1507
     11 C          65.3284   96.2597   -2.1316 C.2     1  UNL1        0.1054
     12 C          64.6439   95.5725   -0.9873 C.3     1  UNL1        0.1032
     13 C          61.6253   93.4669    0.4973 C.3     1  UNL1        0.1069
     14 N          60.7707   93.2969   -0.7235 N.3     1  UNL1       -0.2632
     15 C          61.1889   92.8783    1.8062 C.ar    1  UNL1        0.0512
     16 C          60.0032   93.4483    2.5268 C.ar    1  UNL1        0.1399
     17 F          59.2539   94.6069    1.9385 F       1  UNL1       -0.2044
     18 C          59.5668   92.8597    3.8357 C.ar    1  UNL1        0.0295
     19 C          60.3162   91.7010    4.4240 C.ar    1  UNL1        0.0045
     20 C          61.5019   91.1310    3.7034 C.ar    1  UNL1        0.0295
     21 C          61.9383   91.7197    2.3945 C.ar    1  UNL1        0.1399
     22 F          63.1240   91.1497    1.6740 F       1  UNL1       -0.2044
     23 C          59.8798   91.1124    5.7328 C.2     1  UNL1        0.0013
     24 C          59.9271   89.6276    5.9404 C.2     1  UNL1        0.0151
     25 C          59.4907   89.0390    7.2492 C.2     1  UNL1        0.0729
     26 O          60.2657   89.3330    8.4994 O.co2   1  UNL1       -0.5446
     27 O          58.2792   88.1564    7.3078 O.co2   1  UNL1       -0.5446
     28 C          59.4795   92.5384   -0.6356 C.3     1  UNL1        0.1398
     29 C          58.1831   93.2259   -0.9462 C.3     1  UNL1        0.2786
     30 C          56.8867   93.9135   -1.2567 C.3     1  UNL1        0.0737
     31 F          58.6517   94.4437   -0.2064 F       1  UNL1       -0.2028
     32 F          57.7145   92.0082   -1.6860 F       1  UNL1       -0.2028
@<TRIPOS>UNITY_ATOM_ATTR
26 1
charge -1
@<TRIPOS>BOND
     1     2     1    1
     2     2     3    1
     3     3     4    1
     4     4     5    2
     5     5     6    1
     6     6     7    2
     7     7     8    1
     8     8     9    2
     9     9    10    1
    10    10    11    2
    11    11    12    1
    12     5    13    1
    13    13    15    1
    14    15    16   ar
    15    16    17    1
    16    16    18   ar
    17    18    19   ar
    18    19    23    1
    19    23    24    2
    20    24    25    1
    21    25    26   ar
    22    25    27   ar
    23    19    20   ar
    24    20    21   ar
    25    21    22    1
    26    13    14    1
    27    14    28    1
    28    28    29    1
    29    29    30    1
    30    29    31    1
    31    29    32    1
    32    14     2    1
    33    12     4    1
    34    21    15   ar
    35    12     8    1
@<TRIPOS>MOLECULE
*****
 32 35 0 0 0
SMALL
GASTEIGER

@<TRIPOS>ATOM
      1 C          59.9419   86.5951   10.0293 C.3     1  UNL1        0.0177
      2 C          61.0840   86.7768   10.9847 C.3     1  UNL1        0.0623
      3 C          61.5585   85.6211   11.8148 C.3     1  UNL1        0.0384
      4 C          62.7005   85.8028   12.7702 C.2     1  UNL1       -0.0343
      5 C          63.3681   87.1402   12.8955 C.2     1  UNL1       -0.0106
      6 C          64.5100   87.3218   13.8508 C.2     1  UNL1       -0.0020
      7 C          64.9846   86.1661   14.6810 C.2     1  UNL1        0.0169
      8 C          64.3170   84.8287   14.5557 C.2     1  UNL1        0.0896
      9 N          64.5639   83.5159   15.2380 N.2     1  UNL1       -0.1520
     10 N          63.5745   82.5228   14.7043 N.2     1  UNL1       -0.1507
     11 C          62.7161   83.2219   13.6922 C.2     1  UNL1        0.1054
     12 C          63.1750   84.6470   13.6003 C.3     1  UNL1        0.1032
     13 C          62.8935   88.2959   12.0653 C.3     1  UNL1        0.1069
     14 N          61.7516   88.1142   11.1099 N.3     1  UNL1       -0.2632
     15 C          63.5611   89.6333   12.1905 C.ar    1  UNL1        0.0512
     16 C          63.8850   90.4282   10.9603 C.ar    1  UNL1        0.1399
     17 F          63.5413   89.8855    9.6048 F       1  UNL1       -0.2044
     18 C          64.5525   91.7656   11.0856 C.ar    1  UNL1        0.0295
     19 C          64.8962   92.3082   12.4412 C.ar    1  UNL1        0.0045
     20 C          64.5724   91.5134   13.6713 C.ar    1  UNL1        0.0295
     21 C          63.9048   90.1759   13.5460 C.ar    1  UNL1        0.1399
     22 F          63.5809   89.3812   14.7763 F       1  UNL1       -0.2044
     23 C          65.5638   93.6456   12.5665 C.2     1  UNL1        0.0013
     24 C          65.7568   94.5041   11.3517 C.2     1  UNL1        0.0151
     25 C          66.4244   95.8415   11.4770 C.2     1  UNL1        0.0729
     26 O          66.2140   96.6724   12.7080 O.co2   1  UNL1       -0.5446
     27 O          67.3023   96.3480   10.3711 O.co2   1  UNL1       -0.5446
     28 C          61.2770   89.2700   10.2797 C.3     1  UNL1        0.1398
     29 C          60.1700   90.1491   10.7812 C.3     1  UNL1        0.2786
     30 C          59.0629   91.0282   11.2826 C.3     1  UNL1        0.0737
     31 F          59.7900   90.4769    9.3676 F       1  UNL1       -0.2028
     32 F          60.5499   89.8213   12.1947 F       1  UNL1       -0.2028
@<TRIPOS>UNITY_ATOM_ATTR
26 1
charge -1
@<TRIPOS>BOND
     1     2     1    1
     2     2     3    1
     3     3     4    1
     4     4     5    2
     5     5     6    1
     6     6     7    2
     7     7     8    1
     8     8     9    2
     9     9    10    1
    10    10    11    2
    11    11    12    1
    12     5    13    1
    13    13    15    1
    14    15    16   ar
    15    16    17    1
    16    16    18   ar
    17    18    19   ar
    18    19    23    1
    19    23    24    2
    20    24    25    1
    21    25    26   ar
    22    25    27   ar
    23    19    20   ar
    24    20    21   ar
    25    21    22    1
    26    13    14    1
    27    14    28    1
    28    28    29    1
    29    29    30    1
    30    29    31    1
    31    29    32    1
    32    14     2    1
    33    12     4    1
    34    21    15   ar
    35    12     8    1
@<TRIPOS>MOLECULE
*****
 32 35 0 0 0
SMALL
GASTEIGER

@<TRIPOS>ATOM
      1 C          60.4755   88.9205    9.1404 C.3     1  UNL1        0.0177
      2 C          61.3465   88.3019   10.1934 C.3     1  UNL1        0.0623
      3 C          62.0059   89.1681   11.2252 C.3     1  UNL1        0.0384
      4 C          62.8768   88.5496   12.2782 C.2     1  UNL1       -0.0343
      5 C          63.0884   87.0648   12.2994 C.2     1  UNL1       -0.0106
      6 C          63.9593   86.4462   13.3523 C.2     1  UNL1       -0.0020
      7 C          64.6188   87.3125   14.3842 C.2     1  UNL1        0.0169
      8 C          64.4072   88.7974   14.3631 C.2     1  UNL1        0.0896
      9 N          64.9223   89.8972   15.2434 N.2     1  UNL1       -0.1520
     10 N          64.3697   91.1955   14.7345 N.2     1  UNL1       -0.1507
     11 C          63.5130   90.8980   13.5396 C.2     1  UNL1        0.1054
     12 C          63.5363   89.4159   13.3101 C.3     1  UNL1        0.1032
     13 C          62.4289   86.1985   11.2675 C.3     1  UNL1        0.1069
     14 N          61.5580   86.8170   10.2146 N.3     1  UNL1       -0.2632
     15 C          62.6405   84.7136   11.2887 C.ar    1  UNL1        0.0512
     16 C          62.1066   83.8961   12.4274 C.ar    1  UNL1        0.1399
     17 F          61.3611   84.5634   13.5449 F       1  UNL1       -0.2044
     18 C          62.3182   82.4112   12.4485 C.ar    1  UNL1        0.0295
     19 C          63.0637   81.7439   11.3309 C.ar    1  UNL1        0.0045
     20 C          63.5975   82.5614   10.1923 C.ar    1  UNL1        0.0295
     21 C          63.3860   84.0463   10.1711 C.ar    1  UNL1        0.1399
     22 F          63.9199   84.8638    9.0324 F       1  UNL1       -0.2044
     23 C          63.2752   80.2590   11.3521 C.2     1  UNL1        0.0013
     24 C          63.0741   79.4549   10.1019 C.2     1  UNL1        0.0151
     25 C          63.2857   77.9701   10.1231 C.2     1  UNL1        0.0729
     26 O          62.4808   77.1110   11.0526 O.co2   1  UNL1       -0.5446
     27 O          64.3022   77.3444    9.2146 O.co2   1  UNL1       -0.5446
     28 C          60.8986   85.9507    9.1826 C.3     1  UNL1        0.1398
     29 C          61.5985   85.6613    7.8880 C.3     1  UNL1        0.2786
     30 C          62.2985   85.3719    6.5933 C.3     1  UNL1        0.0737
     31 F          60.4221   84.8492    7.4335 F       1  UNL1       -0.2028
     32 F          62.7749   86.4734    8.3424 F       1  UNL1       -0.2028
@<TRIPOS>UNITY_ATOM_ATTR
26 1
charge -1
@<TRIPOS>BOND
     1     2     1    1
     2     2     3    1
     3     3     4    1
     4     4     5    2
     5     5     6    1
     6     6     7    2
     7     7     8    1
     8     8     9    2
     9     9    10    1
    10    10    11    2
    11    11    12    1
    12     5    13    1
    13    13    15    1
    14    15    16   ar
    15    16    17    1
    16    16    18   ar
    17    18    19   ar
    18    19    23    1
    19    23    24    2
    20    24    25    1
    21    25    26   ar
    22    25    27   ar
    23    19    20   ar
    24    20    21   ar
    25    21    22    1
    26    13    14    1
    27    14    28    1
    28    28    29    1
    29    29    30    1
    30    29    31    1
    31    29    32    1
    32    14     2    1
    33    12     4    1
    34    21    15   ar
    35    12     8    1
@<TRIPOS>MOLECULE
*****
 32 35 0 0 0
SMALL
GASTEIGER

@<TRIPOS>ATOM
      1 C          62.5787   83.8931   12.1580 C.3     1  UNL1        0.0177
      2 C          62.3858   85.3388   11.8078 C.3     1  UNL1        0.0623
      3 C          61.4297   85.7256   10.7186 C.3     1  UNL1        0.0384
      4 C          61.2368   87.1713   10.3684 C.2     1  UNL1       -0.0343
      5 C          62.0000   88.2303   11.1073 C.2     1  UNL1       -0.0106
      6 C          61.8071   89.6759   10.7571 C.2     1  UNL1       -0.0020
      7 C          60.8509   90.0627    9.6679 C.2     1  UNL1        0.0169
      8 C          60.0877   89.0037    8.9290 C.2     1  UNL1        0.0896
      9 N          59.0840   89.0814    7.8170 N.2     1  UNL1       -0.1520
     10 N          58.6566   87.6836    7.4800 N.2     1  UNL1       -0.1507
     11 C          59.3961   86.7421    8.3837 C.2     1  UNL1        0.1054
     12 C          60.2806   87.5580    9.2792 C.3     1  UNL1        0.1032
     13 C          62.9561   87.8435   12.1965 C.3     1  UNL1        0.1069
     14 N          63.1490   86.3979   12.5467 N.3     1  UNL1       -0.2632
     15 C          63.7194   88.9025   12.9354 C.ar    1  UNL1        0.0512
     16 C          64.2534   90.0946   12.1979 C.ar    1  UNL1        0.1399
     17 F          64.0241   90.2277   10.7215 F       1  UNL1       -0.2044
     18 C          65.0166   91.1536   12.9368 C.ar    1  UNL1        0.0295
     19 C          65.2458   91.0205   14.4133 C.ar    1  UNL1        0.0045
     20 C          64.7119   89.8285   15.1507 C.ar    1  UNL1        0.0295
     21 C          63.9486   88.7694   14.4117 C.ar    1  UNL1        0.1399
     22 F          63.4147   87.5774   15.1492 F       1  UNL1       -0.2044
     23 C          66.0090   92.0795   15.1522 C.2     1  UNL1        0.0013
     24 C          67.5087   92.0826   15.1212 C.2     1  UNL1        0.0151
     25 C          68.2719   93.1416   15.8601 C.2     1  UNL1        0.0729
     26 O          67.8848   94.5836   15.7157 O.co2   1  UNL1       -0.5446
     27 O          69.4223   92.7586   16.7433 O.co2   1  UNL1       -0.5446
     28 C          64.1052   86.0110   13.6359 C.3     1  UNL1        0.1398
     29 C          63.9701   84.6805   14.3149 C.3     1  UNL1        0.2786
     30 C          63.8350   83.3498   14.9939 C.3     1  UNL1        0.0737
     31 F          65.2352   84.2159   13.6563 F       1  UNL1       -0.2028
     32 F          62.7050   85.1449   14.9735 F       1  UNL1       -0.2028
@<TRIPOS>UNITY_ATOM_ATTR
26 1
charge -1
@<TRIPOS>BOND
     1     2     1    1
     2     2     3    1
     3     3     4    1
     4     4     5    2
     5     5     6    1
     6     6     7    2
     7     7     8    1
     8     8     9    2
     9     9    10    1
    10    10    11    2
    11    11    12    1
    12     5    13    1
    13    13    15    1
    14    15    16   ar
    15    16    17    1
    16    16    18   ar
    17    18    19   ar
    18    19    23    1
    19    23    24    2
    20    24    25    1
    21    25    26   ar
    22    25    27   ar
    23    19    20   ar
    24    20    21   ar
    25    21    22    1
    26    13    14    1
    27    14    28    1
    28    28    29    1
    29    29    30    1
    30    29    31    1
    31    29    32    1
    32    14     2    1
    33    12     4    1
    34    21    15   ar
    35    12     8    1
