@<TRIPOS>MOLECULE
*****
 42 45 0 0 0
SMALL
GASTEIGER

@<TRIPOS>ATOM
      1 C          63.8833   90.7433   13.0088 C.3     1  UNL1        0.0736
      2 C          63.1871   90.8322   11.6831 C.3     1  UNL1        0.0217
      3 C          62.7747   89.4468   11.2823 C.3     1  UNL1        0.0282
      4 C          63.2159   88.5018   12.3604 C.3     1  UNL1        0.1348
      5 C          63.0824   87.0150   12.5082 C.ar    1  UNL1       -0.0061
      6 C          62.3972   86.2138   11.4412 C.ar    1  UNL1       -0.0032
      7 C          62.2636   84.7271   11.5891 C.ar    1  UNL1       -0.0015
      8 C          62.8152   84.0417   12.8040 C.ar    1  UNL1        0.0232
      9 C          63.5004   84.8429   13.8710 C.ar    1  UNL1       -0.0057
     10 C          63.6340   86.3296   13.7231 C.ar    1  UNL1       -0.0248
     11 C          64.3191   87.1310   14.7901 C.3     1  UNL1        0.0262
     12 C          64.4527   88.6176   14.6422 C.3     1  UNL1        0.0083
     13 C          63.9011   89.3030   13.4273 C.3     1  UNL1        0.0429
     14 C          65.9194   92.2195   13.6606 C.2     1  UNL1        0.2465
     15 O          66.8015   91.3965   12.7692 O.2     1  UNL1       -0.2726
     16 N          64.4604   91.8930   13.7804 N.am    1  UNL1       -0.3040
     17 H          63.8815   92.4332   14.3655 H       1  UNL1        0.1494
     18 C          66.5041   92.5305   15.6759 C.3     1  UNL1        0.0387
     19 C          66.4966   93.3691   14.4323 C.3     1  UNL1        0.1563
     20 C          66.4891   94.2077   13.1886 C.3     1  UNL1        0.0387
     21 O          67.0738   94.5186   15.2040 O.3     1  UNL1       -0.3781
     22 H          67.1936   95.2777   14.6121 H       1  UNL1        0.2109
     23 S          62.5093   87.8360   11.2169 S.O2    1  UNL1        0.0090
     24 O          63.1001   87.5961   10.7385 O.2     1  UNL1       -0.1684
     25 O          61.1874   88.1353   11.8595 O.2     1  UNL1       -0.1684
     26 C          61.8027   87.1702   10.0735 C.ar    1  UNL1        0.1060
     27 C          60.3156   87.3044    9.9305 C.ar    1  UNL1        0.0207
     28 C          59.6090   86.6386    8.7871 C.ar    1  UNL1        0.0310
     29 C          60.3895   85.8386    7.7867 C.ar    1  UNL1        0.1402
     30 F          59.6828   85.1728    6.6432 F       1  UNL1       -0.2042
     31 C          61.8766   85.7045    7.9297 C.ar    1  UNL1        0.0310
     32 C          62.5832   86.3702    9.0730 C.ar    1  UNL1        0.0207
     33 C          62.6816   82.5549   12.9519 C.3     1  UNL1        0.3242
     34 F          61.8504   82.7523   14.1848 F       1  UNL1       -0.2176
     35 C          62.5480   81.0683   13.0998 C.3     1  UNL1        0.4363
     36 F          62.4145   79.5815   13.2477 F       1  UNL1       -0.1666
     37 F          61.0579   81.2115   13.1936 F       1  UNL1       -0.1666
     38 F          64.0108   80.7448   13.0247 F       1  UNL1       -0.1666
     39 C          63.5129   82.3576   11.7190 C.3     1  UNL1        0.4363
     40 F          64.3442   82.1602   10.4861 F       1  UNL1       -0.1666
     41 F          62.5016   81.5694   10.9408 F       1  UNL1       -0.1666
     42 F          64.8019   83.0569   12.0346 F       1  UNL1       -0.1666
@<TRIPOS>BOND
     1    18    19    1
     2    19    20    1
     3    19    21    1
     4    19    14    1
     5    14    15    2
     6    14    16   am
     7     1    16    1
     8     1     2    1
     9     2     3    1
    10     3     4    1
    11     4    23    1
    12    23    24    2
    13    23    25    2
    14    23    26    1
    15    26    27   ar
    16    27    28   ar
    17    28    29   ar
    18    29    30    1
    19    29    31   ar
    20    31    32   ar
    21     4     5    1
    22     5     6   ar
    23     6     7   ar
    24     7     8   ar
    25     8    33    1
    26    33    34    1
    27    33    35    1
    28    35    36    1
    29    35    37    1
    30    35    38    1
    31    33    39    1
    32    39    40    1
    33    39    41    1
    34    39    42    1
    35     8     9   ar
    36     9    10   ar
    37    10    11    1
    38    11    12    1
    39    13    12    1
    40    13     1    1
    41    13     4    1
    42    32    26   ar
    43    10     5   ar
    44    21    22    1
    45    16    17    1
@<TRIPOS>MOLECULE
*****
 42 45 0 0 0
SMALL
GASTEIGER

@<TRIPOS>ATOM
      1 C          64.1485   90.9561   13.3141 C.3     1  UNL1        0.0736
      2 C          63.3488   91.1647   12.0623 C.3     1  UNL1        0.0217
      3 C          62.8442   89.8277   11.6064 C.3     1  UNL1        0.0282
      4 C          63.3320   88.7928   12.5765 C.3     1  UNL1        0.1348
      5 C          63.1463   87.3055   12.6351 C.ar    1  UNL1       -0.0061
      6 C          62.3402   86.6081   11.5798 C.ar    1  UNL1       -0.0032
      7 C          62.1546   85.1208   11.6385 C.ar    1  UNL1       -0.0015
      8 C          62.7750   84.3309   12.7525 C.ar    1  UNL1        0.0232
      9 C          63.5811   85.0283   13.8079 C.ar    1  UNL1       -0.0057
     10 C          63.7668   86.5156   13.7492 C.ar    1  UNL1       -0.0248
     11 C          64.5729   87.2130   14.8046 C.3     1  UNL1        0.0262
     12 C          64.7585   88.7003   14.7459 C.3     1  UNL1        0.0083
     13 C          64.1381   89.4902   13.6319 C.3     1  UNL1        0.0429
     14 C          66.3273   92.1798   14.0250 C.2     1  UNL1        0.2465
     15 O          67.1279   91.2644   13.1469 O.2     1  UNL1       -0.2726
     16 N          64.8376   92.0257   14.1086 N.am    1  UNL1       -0.3040
     17 H          64.3122   92.6265   14.6850 H       1  UNL1        0.1494
     18 C          66.5996   94.2719   13.8044 C.3     1  UNL1        0.0387
     19 C          67.0165   93.2493   14.8195 C.3     1  UNL1        0.1563
     20 C          67.4333   92.2267   15.8346 C.3     1  UNL1        0.0387
     21 O          67.7056   94.3189   15.6139 O.3     1  UNL1       -0.3781
     22 H          68.1083   93.9260   16.4041 H       1  UNL1        0.2109
     23 S          62.5041   88.2367   11.4561 S.O2    1  UNL1        0.0090
     24 O          63.0423   87.9515   10.9418 O.2     1  UNL1       -0.1684
     25 O          61.2541   88.6512   12.1740 O.2     1  UNL1       -0.1684
     26 C          61.6762   87.6806   10.3357 C.ar    1  UNL1        0.1060
     27 C          62.3340   86.9178    9.2242 C.ar    1  UNL1        0.0207
     28 C          61.5062   86.3617    8.1038 C.ar    1  UNL1        0.0310
     29 C          60.0205   86.5683    8.0949 C.ar    1  UNL1        0.1402
     30 F          59.1926   86.0122    6.9744 F       1  UNL1       -0.2042
     31 C          59.3627   87.3311    9.2064 C.ar    1  UNL1        0.0310
     32 C          60.1905   87.8872   10.3267 C.ar    1  UNL1        0.0207
     33 C          62.5893   82.8436   12.8111 C.3     1  UNL1        0.3242
     34 F          62.5699   82.7870   11.3124 F       1  UNL1       -0.2176
     35 C          62.4036   81.3563   12.8697 C.3     1  UNL1        0.4363
     36 F          62.2179   79.8689   12.9283 F       1  UNL1       -0.1666
     37 F          63.5904   81.1727   11.9709 F       1  UNL1       -0.1666
     38 F          61.2031   81.3572   13.7690 F       1  UNL1       -0.1666
     39 C          62.6087   82.9002   14.3099 C.3     1  UNL1        0.4363
     40 F          62.6281   82.9568   15.8088 F       1  UNL1       -0.1666
     41 F          63.8360   82.0611   14.5087 F       1  UNL1       -0.1666
     42 F          61.4159   83.7410   14.6569 F       1  UNL1       -0.1666
@<TRIPOS>BOND
     1    18    19    1
     2    19    20    1
     3    19    21    1
     4    19    14    1
     5    14    15    2
     6    14    16   am
     7     1    16    1
     8     1     2    1
     9     2     3    1
    10     3     4    1
    11     4    23    1
    12    23    24    2
    13    23    25    2
    14    23    26    1
    15    26    27   ar
    16    27    28   ar
    17    28    29   ar
    18    29    30    1
    19    29    31   ar
    20    31    32   ar
    21     4     5    1
    22     5     6   ar
    23     6     7   ar
    24     7     8   ar
    25     8    33    1
    26    33    34    1
    27    33    35    1
    28    35    36    1
    29    35    37    1
    30    35    38    1
    31    33    39    1
    32    39    40    1
    33    39    41    1
    34    39    42    1
    35     8     9   ar
    36     9    10   ar
    37    10    11    1
    38    11    12    1
    39    13    12    1
    40    13     1    1
    41    13     4    1
    42    32    26   ar
    43    10     5   ar
    44    21    22    1
    45    16    17    1
