@<TRIPOS>MOLECULE
*****
 40 45 0 0 0
SMALL
GASTEIGER

@<TRIPOS>ATOM
      1 C          59.2437   88.7459    7.3038 C.2     1  UNL1        0.2252
      2 O          58.2919   87.5961    7.1565 O.2     1  UNL1       -0.2749
      3 N          60.1453   88.8246    8.5001 N.am    1  UNL1       -0.2794
      4 C          60.0950   87.7535    9.5489 C.3     1  UNL1        0.0953
      5 C          60.9965   87.8321   10.7452 C.3     1  UNL1        0.0442
      6 C          61.9485   88.9820   10.8926 C.3     1  UNL1        0.0933
      7 C          61.9988   90.0531    9.8438 C.3     1  UNL1        0.0442
      8 C          61.0972   89.9744    8.6475 C.3     1  UNL1        0.0953
      9 N          62.8500   89.0607   12.0888 N.ar    1  UNL1       -0.2817
     10 C          63.4308   90.3137   12.6743 C.ar    1  UNL1        0.3314
     11 O          63.2119   91.7080   12.1664 O.2     1  UNL1       -0.2463
     12 N          64.2688   89.9275   13.8569 N.ar    1  UNL1       -0.2817
     13 C          64.2060   88.4359   14.0024 C.ar    1  UNL1        0.0819
     14 C          64.8339   87.4963   14.9886 C.ar    1  UNL1        0.0484
     15 C          64.5850   86.0209   14.8821 C.ar    1  UNL1        0.1417
     16 F          65.2130   85.0812   15.8684 F       1  UNL1       -0.2041
     17 C          63.7082   85.4852   13.7893 C.ar    1  UNL1        0.0312
     18 C          63.0802   86.4248   12.8031 C.ar    1  UNL1        0.0211
     19 C          63.3291   87.9001   12.9096 C.ar    1  UNL1        0.0798
     20 C          65.0351   90.8678   14.7393 C.3     1  UNL1        0.0899
     21 C          66.4674   91.2753   14.5599 C.3     1  UNL1        0.0227
     22 C          66.8212   92.2252   15.6657 C.3     1  UNL1        0.0020
     23 C          65.6073   92.4046   16.5285 C.3     1  UNL1        0.0020
     24 C          64.5035   91.5658   15.9560 C.3     1  UNL1        0.0227
     25 N          59.3948   91.9594    4.1573 N.3     1  UNL1       -0.2689
     26 C          60.6445   91.2209    4.5358 C.3     1  UNL1        0.0729
     27 C          60.5941   90.1497    5.5846 C.3     1  UNL1        0.0264
     28 C          59.2941   89.8171    6.2550 C.3     1  UNL1        0.0795
     29 C          58.0445   90.5556    5.8766 C.3     1  UNL1        0.0264
     30 C          58.0949   91.6267    4.8278 C.3     1  UNL1        0.0729
     31 C          59.4452   93.0306    3.1085 C.3     1  UNL1        0.0993
     32 N          64.4582   92.9974    1.7417 N.pl3   1  UNL1       -0.3426
     33 C          63.0076   92.9723    1.3606 C.ar    1  UNL1        0.1251
     34 C          61.9516   93.0140    2.4251 C.ar    1  UNL1        0.0310
     35 C          60.5011   92.9889    2.0440 C.ar    1  UNL1       -0.0018
     36 C          60.1065   92.9222    0.5983 C.ar    1  UNL1        0.0179
     37 C          61.1625   92.8805   -0.4662 C.ar    1  UNL1        0.1000
     38 N          62.6130   92.9056   -0.0850 N.ar    1  UNL1       -0.2296
     39 H          64.7172   93.0412    2.6905 H       1  UNL1        0.1437
     40 H          65.1512   92.9700    1.0430 H       1  UNL1        0.1437
@<TRIPOS>BOND
     1    32    33    1
     2    33    34   ar
     3    34    35   ar
     4    35    31    1
     5    31    25    1
     6    25    26    1
     7    26    27    1
     8    27    28    1
     9    28     1    1
    10     1     2    2
    11     1     3   am
    12     3     4    1
    13     4     5    1
    14     5     6    1
    15     6     9    1
    16     9    10   ar
    17    10    11    2
    18    10    12   ar
    19    12    20    1
    20    20    21    1
    21    21    22    1
    22    22    23    1
    23    23    24    1
    24    12    13   ar
    25    13    14   ar
    26    14    15   ar
    27    15    16    1
    28    15    17   ar
    29    17    18   ar
    30    18    19   ar
    31     6     7    1
    32     7     8    1
    33    28    29    1
    34    29    30    1
    35    35    36   ar
    36    36    37   ar
    37    37    38   ar
    38    38    33   ar
    39    30    25    1
    40     8     3    1
    41    19     9   ar
    42    24    20    1
    43    19    13   ar
    44    32    39    1
    45    32    40    1
@<TRIPOS>MOLECULE
*****
 40 45 0 0 0
SMALL
GASTEIGER

@<TRIPOS>ATOM
      1 C          62.6053   86.5737   16.6466 C.2     1  UNL1        0.2252
      2 O          61.7245   86.7330   17.8502 O.2     1  UNL1       -0.2749
      3 N          63.2987   87.7681   16.0613 N.am    1  UNL1       -0.2794
      4 C          63.1112   89.1218   16.6796 C.3     1  UNL1        0.0953
      5 C          63.8045   90.3162   16.0943 C.3     1  UNL1        0.0442
      6 C          64.6855   90.1569   14.8906 C.3     1  UNL1        0.0933
      7 C          64.8729   88.8032   14.2724 C.3     1  UNL1        0.0442
      8 C          64.1796   87.6088   14.8577 C.3     1  UNL1        0.0953
      9 N          65.3788   91.3514   14.3053 N.ar    1  UNL1       -0.2817
     10 C          65.0916   91.9708   12.9697 C.ar    1  UNL1        0.3314
     11 O          64.0606   91.5047   11.9850 O.2     1  UNL1       -0.2463
     12 N          66.0165   93.1383   12.7919 N.ar    1  UNL1       -0.2817
     13 C          66.8752   93.2404   14.0175 C.ar    1  UNL1        0.0819
     14 C          67.9651   94.1963   14.4026 C.ar    1  UNL1        0.0484
     15 C          68.6609   94.0478   15.7231 C.ar    1  UNL1        0.1417
     16 F          69.7509   95.0037   16.1083 F       1  UNL1       -0.2041
     17 C          68.2668   92.9433   16.6585 C.ar    1  UNL1        0.0312
     18 C          67.1770   91.9874   16.2733 C.ar    1  UNL1        0.0211
     19 C          66.4812   92.1360   14.9528 C.ar    1  UNL1        0.0798
     20 C          66.0727   94.0447   11.5980 C.3     1  UNL1        0.0899
     21 C          66.3767   93.6293   10.1891 C.3     1  UNL1        0.0227
     22 C          66.3266   94.8534    9.3237 C.3     1  UNL1        0.0020
     23 C          65.9917   96.0255   10.1979 C.3     1  UNL1        0.0020
     24 C          65.8347   95.5257   11.6034 C.3     1  UNL1        0.0227
     25 N          63.1679   82.5125   14.7918 N.3     1  UNL1       -0.2689
     26 C          64.3551   83.2764   15.2990 C.3     1  UNL1        0.0729
     27 C          64.1676   84.6301   15.9173 C.3     1  UNL1        0.0264
     28 C          62.7928   85.2199   16.0283 C.3     1  UNL1        0.0795
     29 C          61.6057   84.4561   15.5211 C.3     1  UNL1        0.0264
     30 C          61.7932   83.1024   14.9028 C.3     1  UNL1        0.0729
     31 C          63.3554   81.1588   14.1735 C.3     1  UNL1        0.0993
     32 N          62.4718   78.2306    9.9729 N.pl3   1  UNL1       -0.3426
     33 C          62.8782   79.5399   10.5817 C.ar    1  UNL1        0.1251
     34 C          62.9136   79.6947   12.0733 C.ar    1  UNL1        0.0310
     35 C          63.3201   81.0040   12.6820 C.ar    1  UNL1       -0.0018
     36 C          63.6912   82.1585   11.7991 C.ar    1  UNL1        0.0179
     37 C          63.6558   82.0037   10.3075 C.ar    1  UNL1        0.1000
     38 N          63.2493   80.6943    9.6988 N.ar    1  UNL1       -0.2296
     39 H          62.2282   77.4728   10.5524 H       1  UNL1        0.1437
     40 H          62.4486   78.1290    8.9940 H       1  UNL1        0.1437
@<TRIPOS>BOND
     1    32    33    1
     2    33    34   ar
     3    34    35   ar
     4    35    31    1
     5    31    25    1
     6    25    26    1
     7    26    27    1
     8    27    28    1
     9    28     1    1
    10     1     2    2
    11     1     3   am
    12     3     4    1
    13     4     5    1
    14     5     6    1
    15     6     9    1
    16     9    10   ar
    17    10    11    2
    18    10    12   ar
    19    12    20    1
    20    20    21    1
    21    21    22    1
    22    22    23    1
    23    23    24    1
    24    12    13   ar
    25    13    14   ar
    26    14    15   ar
    27    15    16    1
    28    15    17   ar
    29    17    18   ar
    30    18    19   ar
    31     6     7    1
    32     7     8    1
    33    28    29    1
    34    29    30    1
    35    35    36   ar
    36    36    37   ar
    37    37    38   ar
    38    38    33   ar
    39    30    25    1
    40     8     3    1
    41    19     9   ar
    42    24    20    1
    43    19    13   ar
    44    32    39    1
    45    32    40    1
@<TRIPOS>MOLECULE
*****
 40 45 0 0 0
SMALL
GASTEIGER

@<TRIPOS>ATOM
      1 C          58.7004   90.5396    5.9379 C.2     1  UNL1        0.2252
      2 O          57.2418   90.8531    6.0928 O.2     1  UNL1       -0.2749
      3 N          59.4876   91.1646    4.8244 N.am    1  UNL1       -0.2794
      4 C          58.8162   92.1029    3.8660 C.3     1  UNL1        0.0953
      5 C          59.6034   92.7279    2.7526 C.3     1  UNL1        0.0442
      6 C          61.0622   92.4144    2.5975 C.3     1  UNL1        0.0933
      7 C          61.7335   91.4761    3.5560 C.3     1  UNL1        0.0442
      8 C          60.9463   90.8512    4.6694 C.3     1  UNL1        0.0953
      9 N          61.8494   93.0394    1.4841 N.ar    1  UNL1       -0.2817
     10 C          61.6311   92.8165    0.0169 C.ar    1  UNL1        0.3314
     11 O          60.5873   91.9295   -0.5945 O.2     1  UNL1       -0.2463
     12 N          62.6399   93.6363   -0.7315 N.ar    1  UNL1       -0.2817
     13 C          63.4816   94.3659    0.2731 C.ar    1  UNL1        0.0819
     14 C          64.6298   95.3185    0.1178 C.ar    1  UNL1        0.0484
     15 C          65.2895   95.9021    1.3320 C.ar    1  UNL1        0.1417
     16 F          66.4377   96.8548    1.1768 F       1  UNL1       -0.2041
     17 C          64.8009   95.5332    2.7013 C.ar    1  UNL1        0.0312
     18 C          63.6527   94.5806    2.8566 C.ar    1  UNL1        0.0211
     19 C          62.9930   93.9969    1.6424 C.ar    1  UNL1        0.0798
     20 C          62.7821   93.7131   -2.2228 C.3     1  UNL1        0.0899
     21 C          63.8904   93.1116   -3.0350 C.3     1  UNL1        0.0227
     22 C          63.6342   93.4316   -4.4779 C.3     1  UNL1        0.0020
     23 C          62.3673   94.2309   -4.5574 C.3     1  UNL1        0.0020
     24 C          61.8407   94.4049   -3.1637 C.3     1  UNL1        0.0227
     25 N          60.7148   87.7245    8.8132 N.3     1  UNL1       -0.2689
     26 C          59.9558   87.1810    7.6390 C.3     1  UNL1        0.0729
     27 C          59.2843   88.1194    6.6805 C.3     1  UNL1        0.0264
     28 C          59.3719   89.6013    6.8963 C.3     1  UNL1        0.0795
     29 C          60.1309   90.1447    8.0704 C.3     1  UNL1        0.0264
     30 C          60.8023   89.2064    9.0289 C.3     1  UNL1        0.0729
     31 C          61.3862   86.7862    9.7716 C.3     1  UNL1        0.0993
     32 N          63.1357   90.8372   12.5155 N.pl3   1  UNL1       -0.3426
     33 C          63.0104   89.3547   12.3240 C.ar    1  UNL1        0.1251
     34 C          62.2609   88.8116   11.1436 C.ar    1  UNL1        0.0310
     35 C          62.1357   87.3292   10.9521 C.ar    1  UNL1       -0.0018
     36 C          62.7598   86.3898   11.9410 C.ar    1  UNL1        0.0179
     37 C          63.5092   86.9329   13.1214 C.ar    1  UNL1        0.1000
     38 N          63.6345   88.4153   13.3129 N.ar    1  UNL1       -0.2296
     39 H          62.7260   91.4537   11.8665 H       1  UNL1        0.1437
     40 H          63.6276   91.1935   13.2903 H       1  UNL1        0.1437
@<TRIPOS>BOND
     1    32    33    1
     2    33    34   ar
     3    34    35   ar
     4    35    31    1
     5    31    25    1
     6    25    26    1
     7    26    27    1
     8    27    28    1
     9    28     1    1
    10     1     2    2
    11     1     3   am
    12     3     4    1
    13     4     5    1
    14     5     6    1
    15     6     9    1
    16     9    10   ar
    17    10    11    2
    18    10    12   ar
    19    12    20    1
    20    20    21    1
    21    21    22    1
    22    22    23    1
    23    23    24    1
    24    12    13   ar
    25    13    14   ar
    26    14    15   ar
    27    15    16    1
    28    15    17   ar
    29    17    18   ar
    30    18    19   ar
    31     6     7    1
    32     7     8    1
    33    28    29    1
    34    29    30    1
    35    35    36   ar
    36    36    37   ar
    37    37    38   ar
    38    38    33   ar
    39    30    25    1
    40     8     3    1
    41    19     9   ar
    42    24    20    1
    43    19    13   ar
    44    32    39    1
    45    32    40    1
@<TRIPOS>MOLECULE
*****
 40 45 0 0 0
SMALL
GASTEIGER

@<TRIPOS>ATOM
      1 C          59.4460   89.2240    6.9546 C.2     1  UNL1        0.2252
      2 O          58.4360   88.1368    6.7359 O.2     1  UNL1       -0.2749
      3 N          60.2788   89.2341    8.2022 N.am    1  UNL1       -0.2794
      4 C          60.1015   88.1570    9.2310 C.3     1  UNL1        0.0953
      5 C          60.9343   88.1670   10.4785 C.3     1  UNL1        0.0442
      6 C          61.9444   89.2543   10.6973 C.3     1  UNL1        0.0933
      7 C          62.1216   90.3313    9.6685 C.3     1  UNL1        0.0442
      8 C          61.2888   90.3212    8.4209 C.3     1  UNL1        0.0953
      9 N          62.7772   89.2643   11.9448 N.ar    1  UNL1       -0.2817
     10 C          63.3105   90.4823   12.6391 C.ar    1  UNL1        0.3314
     11 O          63.1048   91.9041   12.2077 O.2     1  UNL1       -0.2463
     12 N          64.0858   90.0289   13.8405 N.ar    1  UNL1       -0.2817
     13 C          64.0315   88.5306   13.8887 C.ar    1  UNL1        0.0819
     14 C          64.6141   87.5356   14.8481 C.ar    1  UNL1        0.0484
     15 C          64.3879   86.0680   14.6360 C.ar    1  UNL1        0.1417
     16 F          64.9705   85.0729   15.5954 F       1  UNL1       -0.2041
     17 C          63.5791   85.5955   13.4644 C.ar    1  UNL1        0.0312
     18 C          62.9965   86.5905   12.5050 C.ar    1  UNL1        0.0211
     19 C          63.2228   88.0581   12.7172 C.ar    1  UNL1        0.0798
     20 C          64.7914   90.9176   14.8214 C.3     1  UNL1        0.0899
     21 C          64.2266   91.4274   16.1141 C.3     1  UNL1        0.0227
     22 C          65.2718   92.2775   16.7735 C.3     1  UNL1        0.0020
     23 C          66.4827   92.2930   15.8883 C.3     1  UNL1        0.0020
     24 C          66.1858   91.4526   14.6818 C.3     1  UNL1        0.0227
     25 N          59.9778   92.4553    3.8682 N.3     1  UNL1       -0.2689
     26 C          58.6080   92.1316    4.3869 C.3     1  UNL1        0.0729
     27 C          58.4307   91.0546    5.4157 C.3     1  UNL1        0.0264
     28 C          59.6233   90.3011    5.9258 C.3     1  UNL1        0.0795
     29 C          60.9930   90.6247    5.4072 C.3     1  UNL1        0.0264
     30 C          61.1703   91.7018    4.3784 C.3     1  UNL1        0.0729
     31 C          60.1551   93.5324    2.8394 C.3     1  UNL1        0.0993
     32 N          57.7574   94.8509   -1.5778 N.pl3   1  UNL1       -0.3426
     33 C          58.6401   93.9132   -0.8088 C.ar    1  UNL1        0.1251
     34 C          58.9563   94.1916    0.6309 C.ar    1  UNL1        0.0310
     35 C          59.8390   93.2539    1.3998 C.ar    1  UNL1       -0.0018
     36 C          60.4057   92.0377    0.7292 C.ar    1  UNL1        0.0179
     37 C          60.0896   91.7593   -0.7104 C.ar    1  UNL1        0.1000
     38 N          59.2068   92.6970   -1.4794 N.ar    1  UNL1       -0.2296
     39 H          57.3854   95.6492   -1.1377 H       1  UNL1        0.1437
     40 H          57.5499   94.6681   -2.5227 H       1  UNL1        0.1437
@<TRIPOS>BOND
     1    32    33    1
     2    33    34   ar
     3    34    35   ar
     4    35    31    1
     5    31    25    1
     6    25    26    1
     7    26    27    1
     8    27    28    1
     9    28     1    1
    10     1     2    2
    11     1     3   am
    12     3     4    1
    13     4     5    1
    14     5     6    1
    15     6     9    1
    16     9    10   ar
    17    10    11    2
    18    10    12   ar
    19    12    20    1
    20    20    21    1
    21    21    22    1
    22    22    23    1
    23    23    24    1
    24    12    13   ar
    25    13    14   ar
    26    14    15   ar
    27    15    16    1
    28    15    17   ar
    29    17    18   ar
    30    18    19   ar
    31     6     7    1
    32     7     8    1
    33    28    29    1
    34    29    30    1
    35    35    36   ar
    36    36    37   ar
    37    37    38   ar
    38    38    33   ar
    39    30    25    1
    40     8     3    1
    41    19     9   ar
    42    24    20    1
    43    19    13   ar
    44    32    39    1
    45    32    40    1
@<TRIPOS>MOLECULE
*****
 40 45 0 0 0
SMALL
GASTEIGER

@<TRIPOS>ATOM
      1 C          58.5717   90.5896    5.9227 C.2     1  UNL1        0.2252
      2 O          57.0828   90.7706    5.9421 O.2     1  UNL1       -0.2749
      3 N          59.3862   91.1937    4.8174 N.am    1  UNL1       -0.2794
      4 C          58.7118   91.9788    3.7317 C.3     1  UNL1        0.0953
      5 C          59.5263   92.5829    2.6264 C.3     1  UNL1        0.0442
      6 C          61.0153   92.4020    2.6069 C.3     1  UNL1        0.0933
      7 C          61.6896   91.6169    3.6926 C.3     1  UNL1        0.0442
      8 C          60.8751   91.0128    4.7979 C.3     1  UNL1        0.0953
      9 N          61.8298   93.0061    1.5016 N.ar    1  UNL1       -0.2817
     10 C          61.6571   92.7443    0.0347 C.ar    1  UNL1        0.3314
     11 O          60.6397   91.8325   -0.5844 O.2     1  UNL1       -0.2463
     12 N          62.6806   93.5545   -0.7042 N.ar    1  UNL1       -0.2817
     13 C          63.4858   94.3170    0.3059 C.ar    1  UNL1        0.0819
     14 C          64.6298   95.2761    0.1604 C.ar    1  UNL1        0.0484
     15 C          65.2481   95.8962    1.3782 C.ar    1  UNL1        0.1417
     16 F          66.3922   96.8554    1.2328 F       1  UNL1       -0.2041
     17 C          64.7222   95.5573    2.7415 C.ar    1  UNL1        0.0312
     18 C          63.5782   94.5982    2.8870 C.ar    1  UNL1        0.0211
     19 C          62.9600   93.9780    1.6692 C.ar    1  UNL1        0.0798
     20 C          62.8663   93.5951   -2.1922 C.3     1  UNL1        0.0899
     21 C          63.8179   92.7494   -2.9853 C.3     1  UNL1        0.0227
     22 C          63.6728   93.1202   -4.4315 C.3     1  UNL1        0.0020
     23 C          62.6314   94.1951   -4.5321 C.3     1  UNL1        0.0020
     24 C          62.1330   94.4886   -3.1481 C.3     1  UNL1        0.0227
     25 N          60.5949   88.2345    9.1800 N.3     1  UNL1       -0.2689
     26 C          60.8066   89.7165    9.0838 C.3     1  UNL1        0.0729
     27 C          60.1322   90.5015    7.9980 C.3     1  UNL1        0.0264
     28 C          59.2461   89.8046    7.0085 C.3     1  UNL1        0.0795
     29 C          59.0344   88.3227    7.1046 C.3     1  UNL1        0.0264
     30 C          59.7088   87.5377    8.1904 C.3     1  UNL1        0.0729
     31 C          61.2693   87.4495   10.2657 C.3     1  UNL1        0.0993
     32 N          63.6469   83.0690   11.7349 N.pl3   1  UNL1       -0.3426
     33 C          63.2550   84.0358   10.6570 C.ar    1  UNL1        0.1251
     34 C          62.4581   85.2593   11.0003 C.ar    1  UNL1        0.0310
     35 C          62.0662   86.2260    9.9224 C.ar    1  UNL1       -0.0018
     36 C          62.4712   85.9691    8.5011 C.ar    1  UNL1        0.0179
     37 C          63.2681   84.7456    8.1578 C.ar    1  UNL1        0.1000
     38 N          63.6600   83.7789    9.2358 N.ar    1  UNL1       -0.2296
     39 H          63.3811   83.2376   12.6678 H       1  UNL1        0.1437
     40 H          64.1700   82.2660   11.5095 H       1  UNL1        0.1437
@<TRIPOS>BOND
     1    32    33    1
     2    33    34   ar
     3    34    35   ar
     4    35    31    1
     5    31    25    1
     6    25    26    1
     7    26    27    1
     8    27    28    1
     9    28     1    1
    10     1     2    2
    11     1     3   am
    12     3     4    1
    13     4     5    1
    14     5     6    1
    15     6     9    1
    16     9    10   ar
    17    10    11    2
    18    10    12   ar
    19    12    20    1
    20    20    21    1
    21    21    22    1
    22    22    23    1
    23    23    24    1
    24    12    13   ar
    25    13    14   ar
    26    14    15   ar
    27    15    16    1
    28    15    17   ar
    29    17    18   ar
    30    18    19   ar
    31     6     7    1
    32     7     8    1
    33    28    29    1
    34    29    30    1
    35    35    36   ar
    36    36    37   ar
    37    37    38   ar
    38    38    33   ar
    39    30    25    1
    40     8     3    1
    41    19     9   ar
    42    24    20    1
    43    19    13   ar
    44    32    39    1
    45    32    40    1
@<TRIPOS>MOLECULE
*****
 40 45 0 0 0
SMALL
GASTEIGER

@<TRIPOS>ATOM
      1 C          58.6255   90.1759    6.1369 C.2     1  UNL1        0.2252
      2 O          57.1495   90.3676    6.3225 O.2     1  UNL1       -0.2749
      3 N          59.3473   90.9174    5.0510 N.am    1  UNL1       -0.2794
      4 C          58.5931   91.8505    4.1507 C.3     1  UNL1        0.0953
      5 C          59.3149   92.5919    3.0648 C.3     1  UNL1        0.0442
      6 C          60.7911   92.4002    2.8791 C.3     1  UNL1        0.0933
      7 C          61.5452   91.4672    3.7794 C.3     1  UNL1        0.0442
      8 C          60.8234   90.7257    4.8653 C.3     1  UNL1        0.0953
      9 N          61.5129   93.1417    1.7932 N.ar    1  UNL1       -0.2817
     10 C          62.7873   93.9167    1.9516 C.ar    1  UNL1        0.3314
     11 O          63.5637   94.0865    3.2238 O.2     1  UNL1       -0.2463
     12 N          63.1490   94.4923    0.6145 N.ar    1  UNL1       -0.2817
     13 C          62.0982   94.0729   -0.3703 C.ar    1  UNL1        0.0819
     14 C          61.9315   94.3433   -1.8363 C.ar    1  UNL1        0.0484
     15 C          60.7535   93.7789   -2.5737 C.ar    1  UNL1        0.1417
     16 F          60.5867   94.0493   -4.0398 F       1  UNL1       -0.2041
     17 C          59.7423   92.9442   -1.8453 C.ar    1  UNL1        0.0312
     18 C          59.9090   92.6738   -0.3793 C.ar    1  UNL1        0.0211
     19 C          61.0870   93.2382    0.3582 C.ar    1  UNL1        0.0798
     20 C          64.3507   95.3386    0.3148 C.3     1  UNL1        0.0899
     21 C          65.1022   96.1833    1.3004 C.3     1  UNL1        0.0227
     22 C          66.2278   96.8556    0.5716 C.3     1  UNL1        0.0020
     23 C          66.1718   96.4263   -0.8646 C.3     1  UNL1        0.0020
     24 C          65.0117   95.4887   -1.0233 C.3     1  UNL1        0.0227
     25 N          60.8882   87.3767    8.8376 N.3     1  UNL1       -0.2689
     26 C          60.8940   88.8515    9.1117 C.3     1  UNL1        0.0729
     27 C          60.1398   89.7846    8.2114 C.3     1  UNL1        0.0264
     28 C          59.3797   89.2428    7.0372 C.3     1  UNL1        0.0795
     29 C          59.3739   87.7681    6.7631 C.3     1  UNL1        0.0264
     30 C          60.1281   86.8350    7.6634 C.3     1  UNL1        0.0729
     31 C          61.6424   86.4436    9.7379 C.3     1  UNL1        0.0993
     32 N          63.8770   85.5944   14.3515 N.pl3   1  UNL1       -0.3426
     33 C          63.4236   86.5444   13.2829 C.ar    1  UNL1        0.1251
     34 C          62.7597   86.0190   12.0447 C.ar    1  UNL1        0.0310
     35 C          62.3063   86.9690   10.9761 C.ar    1  UNL1       -0.0018
     36 C          62.5168   88.4445   11.1457 C.ar    1  UNL1        0.0179
     37 C          63.1807   88.9698   12.3839 C.ar    1  UNL1        0.1000
     38 N          63.6341   88.0198   13.4525 N.ar    1  UNL1       -0.2296
     39 H          63.7389   84.6260   14.2402 H       1  UNL1        0.1437
     40 H          64.3127   85.9393   15.1642 H       1  UNL1        0.1437
@<TRIPOS>BOND
     1    32    33    1
     2    33    34   ar
     3    34    35   ar
     4    35    31    1
     5    31    25    1
     6    25    26    1
     7    26    27    1
     8    27    28    1
     9    28     1    1
    10     1     2    2
    11     1     3   am
    12     3     4    1
    13     4     5    1
    14     5     6    1
    15     6     9    1
    16     9    10   ar
    17    10    11    2
    18    10    12   ar
    19    12    20    1
    20    20    21    1
    21    21    22    1
    22    22    23    1
    23    23    24    1
    24    12    13   ar
    25    13    14   ar
    26    14    15   ar
    27    15    16    1
    28    15    17   ar
    29    17    18   ar
    30    18    19   ar
    31     6     7    1
    32     7     8    1
    33    28    29    1
    34    29    30    1
    35    35    36   ar
    36    36    37   ar
    37    37    38   ar
    38    38    33   ar
    39    30    25    1
    40     8     3    1
    41    19     9   ar
    42    24    20    1
    43    19    13   ar
    44    32    39    1
    45    32    40    1
@<TRIPOS>MOLECULE
*****
 40 45 0 0 0
SMALL
GASTEIGER

@<TRIPOS>ATOM
      1 C          58.9250   89.0820    6.7912 C.2     1  UNL1        0.2252
      2 O          57.7737   88.1639    6.5058 O.2     1  UNL1       -0.2749
      3 N          59.7878   88.8506    7.9963 N.am    1  UNL1       -0.2794
      4 C          59.4992   87.7012    8.9158 C.3     1  UNL1        0.0953
      5 C          60.3620   87.4698   10.1208 C.3     1  UNL1        0.0442
      6 C          61.5135   88.3879   10.4063 C.3     1  UNL1        0.0933
      7 C          61.8020   89.5373    9.4868 C.3     1  UNL1        0.0442
      8 C          60.9392   89.7686    8.2818 C.3     1  UNL1        0.0953
      9 N          62.3763   88.1565   11.6113 N.ar    1  UNL1       -0.2817
     10 C          62.5838   86.8446   12.3084 C.ar    1  UNL1        0.3314
     11 O          61.9649   85.5338   11.9228 O.2     1  UNL1       -0.2463
     12 N          63.5188   87.0738   13.4587 N.ar    1  UNL1       -0.2817
     13 C          63.8891   88.5273   13.4726 C.ar    1  UNL1        0.0819
     14 C          64.7781   89.3279   14.3774 C.ar    1  UNL1        0.0484
     15 C          64.9609   90.7977   14.1405 C.ar    1  UNL1        0.1417
     16 F          65.8499   91.5984   15.0453 F       1  UNL1       -0.2041
     17 C          64.2548   91.4669   12.9987 C.ar    1  UNL1        0.0312
     18 C          63.3658   90.6663   12.0939 C.ar    1  UNL1        0.0211
     19 C          63.1830   89.1965   12.3309 C.ar    1  UNL1        0.0798
     20 C          63.9991   86.0323   14.4254 C.3     1  UNL1        0.0899
     21 C          64.7347   84.7738   14.0721 C.3     1  UNL1        0.0227
     22 C          65.0184   84.0301   15.3435 C.3     1  UNL1        0.0020
     23 C          64.4581   84.8291   16.4827 C.3     1  UNL1        0.0020
     24 C          63.8282   86.0666   15.9153 C.3     1  UNL1        0.0227
     25 N          59.7908   92.5303    4.0327 N.3     1  UNL1       -0.2689
     26 C          58.3946   92.3004    4.5307 C.3     1  UNL1        0.0729
     27 C          58.1060   91.1510    5.4502 C.3     1  UNL1        0.0264
     28 C          59.2136   90.2314    5.8717 C.3     1  UNL1        0.0795
     29 C          60.6098   90.4612    5.3738 C.3     1  UNL1        0.0264
     30 C          60.8983   91.6107    4.4542 C.3     1  UNL1        0.0729
     31 C          60.0794   93.6797    3.1132 C.3     1  UNL1        0.0993
     32 N          58.6259   92.1791   -1.6445 N.pl3   1  UNL1       -0.3426
     33 C          59.6863   92.6727   -0.7053 C.ar    1  UNL1        0.1251
     34 C          59.3527   92.9294    0.7344 C.ar    1  UNL1        0.0310
     35 C          60.4131   93.4230    1.6735 C.ar    1  UNL1       -0.0018
     36 C          61.8071   93.6599    1.1729 C.ar    1  UNL1        0.0179
     37 C          62.1407   93.4031   -0.2668 C.ar    1  UNL1        0.1000
     38 N          61.0803   92.9096   -1.2059 N.ar    1  UNL1       -0.2296
     39 H          57.7109   92.0236   -1.3160 H       1  UNL1        0.1437
     40 H          58.8449   92.0106   -2.5895 H       1  UNL1        0.1437
@<TRIPOS>BOND
     1    32    33    1
     2    33    34   ar
     3    34    35   ar
     4    35    31    1
     5    31    25    1
     6    25    26    1
     7    26    27    1
     8    27    28    1
     9    28     1    1
    10     1     2    2
    11     1     3   am
    12     3     4    1
    13     4     5    1
    14     5     6    1
    15     6     9    1
    16     9    10   ar
    17    10    11    2
    18    10    12   ar
    19    12    20    1
    20    20    21    1
    21    21    22    1
    22    22    23    1
    23    23    24    1
    24    12    13   ar
    25    13    14   ar
    26    14    15   ar
    27    15    16    1
    28    15    17   ar
    29    17    18   ar
    30    18    19   ar
    31     6     7    1
    32     7     8    1
    33    28    29    1
    34    29    30    1
    35    35    36   ar
    36    36    37   ar
    37    37    38   ar
    38    38    33   ar
    39    30    25    1
    40     8     3    1
    41    19     9   ar
    42    24    20    1
    43    19    13   ar
    44    32    39    1
    45    32    40    1
@<TRIPOS>MOLECULE
*****
 40 45 0 0 0
SMALL
GASTEIGER

@<TRIPOS>ATOM
      1 C          58.5686   90.1562    6.2867 C.2     1  UNL1        0.2252
      2 O          57.0702   90.1149    6.3394 O.2     1  UNL1       -0.2749
      3 N          59.2600   90.8922    5.1774 N.am    1  UNL1       -0.2794
      4 C          58.4528   91.5867    4.1209 C.3     1  UNL1        0.0953
      5 C          59.1442   92.3226    3.0117 C.3     1  UNL1        0.0442
      6 C          60.6428   92.3640    2.9589 C.3     1  UNL1        0.0933
      7 C          61.4498   91.6695    4.0154 C.3     1  UNL1        0.0442
      8 C          60.7585   90.9336    5.1246 C.3     1  UNL1        0.0953
      9 N          61.3341   93.0999    1.8496 N.ar    1  UNL1       -0.2817
     10 C          62.6168   93.8687    1.9668 C.ar    1  UNL1        0.3314
     11 O          63.4333   94.0365    3.2139 O.2     1  UNL1       -0.2463
     12 N          62.9395   94.4401    0.6180 N.ar    1  UNL1       -0.2817
     13 C          61.8563   94.0246   -0.3328 C.ar    1  UNL1        0.0819
     14 C          61.6453   94.2934   -1.7933 C.ar    1  UNL1        0.0484
     15 C          60.4421   93.7339   -2.4926 C.ar    1  UNL1        0.1417
     16 F          60.2310   94.0027   -3.9532 F       1  UNL1       -0.2041
     17 C          59.4498   92.9056   -1.7314 C.ar    1  UNL1        0.0312
     18 C          59.6609   92.6368   -0.2709 C.ar    1  UNL1        0.0211
     19 C          60.8641   93.1962    0.4284 C.ar    1  UNL1        0.0798
     20 C          64.1355   95.2798    0.2794 C.3     1  UNL1        0.0899
     21 C          64.8427   95.3143   -1.0429 C.3     1  UNL1        0.0227
     22 C          65.9786   96.2882   -0.9359 C.3     1  UNL1        0.0020
     23 C          65.9733   96.8555    0.4527 C.3     1  UNL1        0.0020
     24 C          64.8342   96.2323    1.2038 C.3     1  UNL1        0.0227
     25 N          60.9900   88.0727    9.4561 N.3     1  UNL1       -0.2689
     26 C          60.9413   89.5714    9.4137 C.3     1  UNL1        0.0729
     27 C          60.1341   90.2659    8.3572 C.3     1  UNL1        0.0264
     28 C          59.3758   89.4617    7.3432 C.3     1  UNL1        0.0795
     29 C          59.4245   87.9631    7.3856 C.3     1  UNL1        0.0264
     30 C          60.2316   87.2686    8.4421 C.3     1  UNL1        0.0729
     31 C          61.7972   87.3782   10.5126 C.3     1  UNL1        0.0993
     32 N          63.3009   82.6870   12.1654 N.pl3   1  UNL1       -0.3426
     33 C          63.1536   83.6888   11.0587 C.ar    1  UNL1        0.1251
     34 C          62.5490   85.0326   11.3390 C.ar    1  UNL1        0.0310
     35 C          62.4017   86.0344   10.2322 C.ar    1  UNL1       -0.0018
     36 C          62.8591   85.6923    8.8452 C.ar    1  UNL1        0.0179
     37 C          63.4636   84.3484    8.5649 C.ar    1  UNL1        0.1000
     38 N          63.6109   83.3467    9.6717 N.ar    1  UNL1       -0.2296
     39 H          63.0008   82.9115   13.0758 H       1  UNL1        0.1437
     40 H          63.6978   81.8050   11.9814 H       1  UNL1        0.1437
@<TRIPOS>BOND
     1    32    33    1
     2    33    34   ar
     3    34    35   ar
     4    35    31    1
     5    31    25    1
     6    25    26    1
     7    26    27    1
     8    27    28    1
     9    28     1    1
    10     1     2    2
    11     1     3   am
    12     3     4    1
    13     4     5    1
    14     5     6    1
    15     6     9    1
    16     9    10   ar
    17    10    11    2
    18    10    12   ar
    19    12    20    1
    20    20    21    1
    21    21    22    1
    22    22    23    1
    23    23    24    1
    24    12    13   ar
    25    13    14   ar
    26    14    15   ar
    27    15    16    1
    28    15    17   ar
    29    17    18   ar
    30    18    19   ar
    31     6     7    1
    32     7     8    1
    33    28    29    1
    34    29    30    1
    35    35    36   ar
    36    36    37   ar
    37    37    38   ar
    38    38    33   ar
    39    30    25    1
    40     8     3    1
    41    19     9   ar
    42    24    20    1
    43    19    13   ar
    44    32    39    1
    45    32    40    1
