@<TRIPOS>MOLECULE
*****
 21 23 0 0 0
SMALL
GASTEIGER

@<TRIPOS>ATOM
      1 O          62.6912   83.4443   12.4495 O.2     1  UNL1       -0.2492
      2 C          62.6894   84.9205   12.1830 C.2     1  UNL1        0.3282
      3 C          62.0319   85.4586   10.9469 C.3     1  UNL1        0.1326
      4 C          62.0301   86.9348   10.6804 C.2     1  UNL1       -0.0196
      5 C          62.6857   87.8727   11.6501 C.2     1  UNL1        0.1550
      6 C          62.6838   89.3489   11.3836 C.2     1  UNL1        0.3816
      7 O          62.0264   89.8870   10.1475 O.2     1  UNL1       -0.2375
      8 N          63.3394   90.2869   12.3533 N.am    1  UNL1        0.0378
      9 C          63.9969   89.7487   13.5896 C.2     1  UNL1        0.4158
     10 N          63.9987   88.2726   13.8560 N.2     1  UNL1        0.0043
     11 C          63.3431   87.3346   12.8863 C.2     1  UNL1        0.3522
     12 O          63.3449   85.8585   13.1527 O.3     1  UNL1       -0.3856
     13 C          64.6524   90.6867   14.5593 C.3     1  UNL1        0.4255
     14 F          63.8662   91.2507   15.7055 F       1  UNL1       -0.1845
     15 F          66.0943   91.0608   14.3828 F       1  UNL1       -0.1845
     16 C          61.3726   87.4729    9.4442 C.3     1  UNL1        0.0230
     17 C          60.0956   86.8625    8.9475 C.3     1  UNL1        0.0044
     18 C          60.0847   86.0872    7.6634 C.3     1  UNL1        0.0003
     19 C          61.3143   85.3505    7.2216 C.3     1  UNL1        0.0000
     20 C          62.7197   84.8953    7.4816 C.3     1  UNL1        0.0000
     21 C          62.0386   84.5296    6.1962 C.3     1  UNL1        0.0000
@<TRIPOS>BOND
     1     1     2    2
     2     2     3    1
     3     3     4    1
     4     4    16    1
     5    16    17    1
     6    17    18    1
     7    18    19    1
     8    19    20    1
     9    20    21    1
    10     4     5    2
    11     5     6    1
    12     6     7    2
    13     6     8    1
    14     8     9    2
    15     9    13    1
    16    13    14    1
    17    13    15    1
    18     9    10    1
    19    10    11    2
    20    11    12    1
    21    12     2    1
    22    21    19    1
    23    11     5    1
@<TRIPOS>MOLECULE
*****
 21 23 0 0 0
SMALL
GASTEIGER

@<TRIPOS>ATOM
      1 O          61.5286   89.5102   10.5782 O.2     1  UNL1       -0.2492
      2 C          62.6259   90.2735   11.2589 C.2     1  UNL1        0.3282
      3 C          62.9579   89.9903   12.6940 C.3     1  UNL1        0.1326
      4 C          64.0552   90.7536   13.3747 C.2     1  UNL1       -0.0196
      5 C          64.8205   91.8000   12.6203 C.2     1  UNL1        0.1550
      6 C          65.9179   92.5633   13.3009 C.2     1  UNL1        0.3816
      7 O          66.2498   92.2801   14.7360 O.2     1  UNL1       -0.2375
      8 N          66.6832   93.6097   12.5465 N.am    1  UNL1        0.0378
      9 C          66.3512   93.8929   11.1113 C.2     1  UNL1        0.4158
     10 N          65.2539   93.1296   10.4307 N.2     1  UNL1        0.0043
     11 C          64.4886   92.0832   11.1852 C.2     1  UNL1        0.3522
     12 O          63.3912   91.3199   10.5045 O.3     1  UNL1       -0.3856
     13 C          67.1166   94.9393   10.3569 C.3     1  UNL1        0.4255
     14 F          66.8477   96.3933   10.6096 F       1  UNL1       -0.1845
     15 F          68.1508   94.5319    9.3498 F       1  UNL1       -0.1845
     16 C          64.3872   90.4704   14.8099 C.3     1  UNL1        0.0230
     17 C          64.0823   89.1250   15.3988 C.3     1  UNL1        0.0044
     18 C          63.1173   89.0075   16.5412 C.3     1  UNL1        0.0003
     19 C          62.9349   87.6910   17.2366 C.3     1  UNL1        0.0000
     20 C          62.7145   86.9067   18.4960 C.3     1  UNL1        0.0000
     21 C          62.8395   86.1951   17.1815 C.3     1  UNL1        0.0000
@<TRIPOS>BOND
     1     1     2    2
     2     2     3    1
     3     3     4    1
     4     4    16    1
     5    16    17    1
     6    17    18    1
     7    18    19    1
     8    19    20    1
     9    20    21    1
    10     4     5    2
    11     5     6    1
    12     6     7    2
    13     6     8    1
    14     8     9    2
    15     9    13    1
    16    13    14    1
    17    13    15    1
    18     9    10    1
    19    10    11    2
    20    11    12    1
    21    12     2    1
    22    21    19    1
    23    11     5    1
@<TRIPOS>MOLECULE
*****
 21 23 0 0 0
SMALL
GASTEIGER

@<TRIPOS>ATOM
      1 O          63.5304   90.0088   16.8590 O.2     1  UNL1       -0.2492
      2 C          63.5551   90.3299   15.3940 C.2     1  UNL1        0.3282
      3 C          64.5694   91.2943   14.8546 C.3     1  UNL1        0.1326
      4 C          64.5940   91.6155   13.3896 C.2     1  UNL1       -0.0196
      5 C          63.6043   90.9722   12.4640 C.2     1  UNL1        0.1550
      6 C          63.6290   91.2933   10.9990 C.2     1  UNL1        0.3816
      7 O          64.6433   92.2577   10.4595 O.2     1  UNL1       -0.2375
      8 N          62.6393   90.6500   10.0734 N.am    1  UNL1        0.0378
      9 C          61.6249   89.6856   10.6128 C.2     1  UNL1        0.4158
     10 N          61.6003   89.3644   12.0779 N.2     1  UNL1        0.0043
     11 C          62.5900   90.0078   13.0034 C.2     1  UNL1        0.3522
     12 O          62.5654   89.6866   14.4685 O.3     1  UNL1       -0.3856
     13 C          60.6353   89.0423    9.6873 C.3     1  UNL1        0.4255
     14 F          60.5397   89.4939    8.2600 F       1  UNL1       -0.1845
     15 F          59.7411   87.9473   10.1889 F       1  UNL1       -0.1845
     16 C          65.6084   92.5799   12.8501 C.3     1  UNL1        0.0230
     17 C          66.9954   92.1079   12.5288 C.3     1  UNL1        0.0044
     18 C          67.9247   91.7027   13.6345 C.3     1  UNL1        0.0003
     19 C          68.0240   92.5396   14.8753 C.3     1  UNL1        0.0000
     20 C          67.4156   93.0583   16.1445 C.3     1  UNL1        0.0000
     21 C          68.8043   93.4706   15.7553 C.3     1  UNL1        0.0000
@<TRIPOS>BOND
     1     1     2    2
     2     2     3    1
     3     3     4    1
     4     4    16    1
     5    16    17    1
     6    17    18    1
     7    18    19    1
     8    19    20    1
     9    20    21    1
    10     4     5    2
    11     5     6    1
    12     6     7    2
    13     6     8    1
    14     8     9    2
    15     9    13    1
    16    13    14    1
    17    13    15    1
    18     9    10    1
    19    10    11    2
    20    11    12    1
    21    12     2    1
    22    21    19    1
    23    11     5    1
@<TRIPOS>MOLECULE
*****
 21 23 0 0 0
SMALL
GASTEIGER

@<TRIPOS>ATOM
      1 O          61.9554   89.0678   10.1936 O.2     1  UNL1       -0.2492
      2 C          62.4475   88.0251   11.1531 C.2     1  UNL1        0.3282
      3 C          63.1635   88.4362   12.4053 C.3     1  UNL1        0.1326
      4 C          63.6555   87.3934   13.3648 C.2     1  UNL1       -0.0196
      5 C          63.4315   85.9395   13.0719 C.2     1  UNL1        0.1550
      6 C          63.9236   84.8967   14.0313 C.2     1  UNL1        0.3816
      7 O          64.6395   85.3078   15.2836 O.2     1  UNL1       -0.2375
      8 N          63.6996   83.4427   13.7385 N.am    1  UNL1        0.0378
      9 C          62.9836   83.0315   12.4861 C.2     1  UNL1        0.4158
     10 N          62.4915   84.0743   11.5267 N.2     1  UNL1        0.0043
     11 C          62.7155   85.5283   11.8196 C.2     1  UNL1        0.3522
     12 O          62.2235   86.5711   10.8602 O.3     1  UNL1       -0.3856
     13 C          62.7596   81.5775   12.1933 C.3     1  UNL1        0.4255
     14 F          62.9537   81.0543   10.8009 F       1  UNL1       -0.1845
     15 F          62.3416   80.6467   13.2927 F       1  UNL1       -0.1845
     16 C          64.3715   87.8046   14.6171 C.3     1  UNL1        0.0230
     17 C          63.9962   89.0803   15.3111 C.3     1  UNL1        0.0044
     18 C          63.1336   89.0411   16.5377 C.3     1  UNL1        0.0003
     19 C          62.7692   87.7243   17.1566 C.3     1  UNL1        0.0000
     20 C          61.9897   86.4433   17.1203 C.3     1  UNL1        0.0000
     21 C          62.9176   86.7243   18.2648 C.3     1  UNL1        0.0000
@<TRIPOS>BOND
     1     1     2    2
     2     2     3    1
     3     3     4    1
     4     4    16    1
     5    16    17    1
     6    17    18    1
     7    18    19    1
     8    19    20    1
     9    20    21    1
    10     4     5    2
    11     5     6    1
    12     6     7    2
    13     6     8    1
    14     8     9    2
    15     9    13    1
    16    13    14    1
    17    13    15    1
    18     9    10    1
    19    10    11    2
    20    11    12    1
    21    12     2    1
    22    21    19    1
    23    11     5    1
@<TRIPOS>MOLECULE
*****
 21 23 0 0 0
SMALL
GASTEIGER

@<TRIPOS>ATOM
      1 O          60.9087   87.1190    8.6310 O.2     1  UNL1       -0.2492
      2 C          61.6415   86.9307    9.9262 C.2     1  UNL1        0.3282
      3 C          61.8919   85.5485   10.4522 C.3     1  UNL1        0.1326
      4 C          62.6248   85.3602   11.7474 C.2     1  UNL1       -0.0196
      5 C          63.1072   86.5541   12.5166 C.2     1  UNL1        0.1550
      6 C          63.8400   86.3658   13.8118 C.2     1  UNL1        0.3816
      7 O          64.0904   84.9836   14.3378 O.2     1  UNL1       -0.2375
      8 N          64.3224   87.5598   14.5810 N.am    1  UNL1        0.0378
      9 C          64.0719   88.9421   14.0551 C.2     1  UNL1        0.4158
     10 N          63.3391   89.1304   12.7599 N.2     1  UNL1        0.0043
     11 C          62.8567   87.9363   11.9907 C.2     1  UNL1        0.3522
     12 O          62.1239   88.1246   10.6955 O.3     1  UNL1       -0.3856
     13 C          64.5543   90.1360   14.8243 C.3     1  UNL1        0.4255
     14 F          65.7301   90.9236   14.3270 F       1  UNL1       -0.1845
     15 F          63.8609   90.5425   16.0908 F       1  UNL1       -0.1845
     16 C          62.8752   83.9779   12.2733 C.3     1  UNL1        0.0230
     17 C          63.5039   82.9417   11.3896 C.3     1  UNL1        0.0044
     18 C          63.0179   81.5232   11.4339 C.3     1  UNL1        0.0003
     19 C          62.4245   80.9728   12.6968 C.3     1  UNL1        0.0000
     20 C          61.4236   81.0662   13.8101 C.3     1  UNL1        0.0000
     21 C          62.3976   79.9262   13.7709 C.3     1  UNL1        0.0000
@<TRIPOS>BOND
     1     1     2    2
     2     2     3    1
     3     3     4    1
     4     4    16    1
     5    16    17    1
     6    17    18    1
     7    18    19    1
     8    19    20    1
     9    20    21    1
    10     4     5    2
    11     5     6    1
    12     6     7    2
    13     6     8    1
    14     8     9    2
    15     9    13    1
    16    13    14    1
    17    13    15    1
    18     9    10    1
    19    10    11    2
    20    11    12    1
    21    12     2    1
    22    21    19    1
    23    11     5    1
@<TRIPOS>MOLECULE
*****
 21 23 0 0 0
SMALL
GASTEIGER

@<TRIPOS>ATOM
      1 O          64.0095   82.5452   14.9701 O.2     1  UNL1       -0.2492
      2 C          63.7714   83.8613   14.2909 C.2     1  UNL1        0.3282
      3 C          63.0975   83.9029   12.9515 C.3     1  UNL1        0.1326
      4 C          62.8594   85.2190   12.2723 C.2     1  UNL1       -0.0196
      5 C          63.2951   86.4934   12.9325 C.2     1  UNL1        0.1550
      6 C          63.0570   87.8094   12.2533 C.2     1  UNL1        0.3816
      7 O          62.3831   87.8511   10.9139 O.2     1  UNL1       -0.2375
      8 N          63.4928   89.0838   12.9136 N.am    1  UNL1        0.0378
      9 C          64.1667   89.0422   14.2531 C.2     1  UNL1        0.4158
     10 N          64.4048   87.7262   14.9323 N.2     1  UNL1        0.0043
     11 C          63.9690   86.4517   14.2720 C.2     1  UNL1        0.3522
     12 O          64.2071   85.1357   14.9512 O.3     1  UNL1       -0.3856
     13 C          64.6025   90.3166   14.9133 C.3     1  UNL1        0.4255
     14 F          65.9013   90.9575   14.5229 F       1  UNL1       -0.1845
     15 F          63.7394   90.9502   15.9639 F       1  UNL1       -0.1845
     16 C          62.1854   85.2606   10.9328 C.3     1  UNL1        0.0230
     17 C          62.9415   84.8621    9.7001 C.3     1  UNL1        0.0044
     18 C          62.6199   85.5035    8.3828 C.3     1  UNL1        0.0003
     19 C          61.2425   86.0390    8.1258 C.3     1  UNL1        0.0000
     20 C          59.9022   85.9127    7.4644 C.3     1  UNL1        0.0000
     21 C          60.1972   87.0927    8.3421 C.3     1  UNL1        0.0000
@<TRIPOS>BOND
     1     1     2    2
     2     2     3    1
     3     3     4    1
     4     4    16    1
     5    16    17    1
     6    17    18    1
     7    18    19    1
     8    19    20    1
     9    20    21    1
    10     4     5    2
    11     5     6    1
    12     6     7    2
    13     6     8    1
    14     8     9    2
    15     9    13    1
    16    13    14    1
    17    13    15    1
    18     9    10    1
    19    10    11    2
    20    11    12    1
    21    12     2    1
    22    21    19    1
    23    11     5    1
@<TRIPOS>MOLECULE
*****
 21 23 0 0 0
SMALL
GASTEIGER

@<TRIPOS>ATOM
      1 O          63.5299   90.1035   16.7776 O.2     1  UNL1       -0.2492
      2 C          63.5436   90.3727   15.3020 C.2     1  UNL1        0.3282
      3 C          64.5805   91.2841   14.7154 C.3     1  UNL1        0.1326
      4 C          64.5942   91.5533   13.2398 C.2     1  UNL1       -0.0196
      5 C          63.5710   90.9110   12.3508 C.2     1  UNL1        0.1550
      6 C          63.5846   91.1801   10.8752 C.2     1  UNL1        0.3816
      7 O          64.6216   92.0915   10.2887 O.2     1  UNL1       -0.2375
      8 N          62.5614   90.5378    9.9862 N.am    1  UNL1        0.0378
      9 C          61.5244   89.6264   10.5727 C.2     1  UNL1        0.4158
     10 N          61.5107   89.3572   12.0483 N.2     1  UNL1        0.0043
     11 C          62.5340   89.9996   12.9373 C.2     1  UNL1        0.3522
     12 O          62.5204   89.7304   14.4129 O.3     1  UNL1       -0.3856
     13 C          60.5012   88.9841    9.6836 C.3     1  UNL1        0.4255
     14 F          60.4172   89.3696    8.2364 F       1  UNL1       -0.1845
     15 F          59.5620   87.9563   10.2417 F       1  UNL1       -0.1845
     16 C          65.6312   92.4647   12.6533 C.3     1  UNL1        0.0230
     17 C          67.0805   92.2616   12.9819 C.3     1  UNL1        0.0044
     18 C          68.0127   91.7021   11.9484 C.3     1  UNL1        0.0003
     19 C          68.0494   92.2960   10.5715 C.3     1  UNL1        0.0000
     20 C          68.5407   92.2617    9.1547 C.3     1  UNL1        0.0000
     21 C          67.6216   93.3589    9.6034 C.3     1  UNL1        0.0000
@<TRIPOS>BOND
     1     1     2    2
     2     2     3    1
     3     3     4    1
     4     4    16    1
     5    16    17    1
     6    17    18    1
     7    18    19    1
     8    19    20    1
     9    20    21    1
    10     4     5    2
    11     5     6    1
    12     6     7    2
    13     6     8    1
    14     8     9    2
    15     9    13    1
    16    13    14    1
    17    13    15    1
    18     9    10    1
    19    10    11    2
    20    11    12    1
    21    12     2    1
    22    21    19    1
    23    11     5    1
@<TRIPOS>MOLECULE
*****
 21 23 0 0 0
SMALL
GASTEIGER

@<TRIPOS>ATOM
      1 O          61.7078   89.6651    9.9763 O.2     1  UNL1       -0.2492
      2 C          62.2439   88.6330   10.9236 C.2     1  UNL1        0.3282
      3 C          63.0210   89.0578   12.1342 C.3     1  UNL1        0.1326
      4 C          63.5571   88.0257   13.0815 C.2     1  UNL1       -0.0196
      5 C          63.3159   86.5688   12.8183 C.2     1  UNL1        0.1550
      6 C          63.8520   85.5367   13.7656 C.2     1  UNL1        0.3816
      7 O          64.6291   85.9615   14.9762 O.2     1  UNL1       -0.2375
      8 N          63.6108   84.0799   13.5024 N.am    1  UNL1        0.0378
      9 C          62.8336   83.6550   12.2918 C.2     1  UNL1        0.4158
     10 N          62.2976   84.6871   11.3444 N.2     1  UNL1        0.0043
     11 C          62.5388   86.1441   11.6077 C.2     1  UNL1        0.3522
     12 O          62.0027   87.1762   10.6604 O.3     1  UNL1       -0.3856
     13 C          62.5925   82.1982   12.0285 C.3     1  UNL1        0.4255
     14 F          61.6491   81.4244   12.9011 F       1  UNL1       -0.1845
     15 F          63.2947   81.5150   10.8927 F       1  UNL1       -0.1845
     16 C          64.3343   88.4505   14.2922 C.3     1  UNL1        0.0230
     17 C          63.6988   89.3437   15.3160 C.3     1  UNL1        0.0044
     18 C          64.0976   90.7871   15.4032 C.3     1  UNL1        0.0003
     19 C          65.2677   91.2910   14.6115 C.3     1  UNL1        0.0000
     20 C          65.8208   91.9136   13.3640 C.3     1  UNL1        0.0000
     21 C          66.7416   91.5412   14.4880 C.3     1  UNL1        0.0000
@<TRIPOS>BOND
     1     1     2    2
     2     2     3    1
     3     3     4    1
     4     4    16    1
     5    16    17    1
     6    17    18    1
     7    18    19    1
     8    19    20    1
     9    20    21    1
    10     4     5    2
    11     5     6    1
    12     6     7    2
    13     6     8    1
    14     8     9    2
    15     9    13    1
    16    13    14    1
    17    13    15    1
    18     9    10    1
    19    10    11    2
    20    11    12    1
    21    12     2    1
    22    21    19    1
    23    11     5    1
@<TRIPOS>MOLECULE
*****
 21 23 0 0 0
SMALL
GASTEIGER

@<TRIPOS>ATOM
      1 O          60.8830   87.3490    8.5526 O.2     1  UNL1       -0.2492
      2 C          61.6402   87.7211    9.7929 C.2     1  UNL1        0.3282
      3 C          62.0075   89.1532   10.0461 C.3     1  UNL1        0.1326
      4 C          62.7647   89.5252   11.2864 C.2     1  UNL1       -0.0196
      5 C          63.1545   88.4652   12.2735 C.2     1  UNL1        0.1550
      6 C          63.9117   88.8372   13.5137 C.2     1  UNL1        0.3816
      7 O          64.2790   90.2693   13.7670 O.2     1  UNL1       -0.2375
      8 N          64.3015   87.7772   14.5008 N.am    1  UNL1        0.0378
      9 C          63.9342   86.3450   14.2476 C.2     1  UNL1        0.4158
     10 N          63.1770   85.9730   13.0073 N.2     1  UNL1        0.0043
     11 C          62.7872   87.0331   12.0202 C.2     1  UNL1        0.3522
     12 O          62.0300   86.6611   10.7799 O.3     1  UNL1       -0.3856
     13 C          64.3240   85.2850   15.2346 C.3     1  UNL1        0.4255
     14 F          64.8640   83.9717   14.7508 F       1  UNL1       -0.1845
     15 F          64.1740   85.5381   16.7055 F       1  UNL1       -0.1845
     16 C          63.1320   90.9574   11.5396 C.3     1  UNL1        0.0230
     17 C          64.1143   91.6497   10.6419 C.3     1  UNL1        0.0044
     18 C          65.2196   92.4734   11.2334 C.3     1  UNL1        0.0003
     19 C          66.4648   92.7381   10.4401 C.3     1  UNL1        0.0000
     20 C          67.8220   92.3058    9.9699 C.3     1  UNL1        0.0000
     21 C          67.2642   93.6289    9.5360 C.3     1  UNL1        0.0000
@<TRIPOS>BOND
     1     1     2    2
     2     2     3    1
     3     3     4    1
     4     4    16    1
     5    16    17    1
     6    17    18    1
     7    18    19    1
     8    19    20    1
     9    20    21    1
    10     4     5    2
    11     5     6    1
    12     6     7    2
    13     6     8    1
    14     8     9    2
    15     9    13    1
    16    13    14    1
    17    13    15    1
    18     9    10    1
    19    10    11    2
    20    11    12    1
    21    12     2    1
    22    21    19    1
    23    11     5    1
