@<TRIPOS>MOLECULE
*****
 54 58 0 0 0
SMALL
GASTEIGER

@<TRIPOS>ATOM
      1 C          64.5171   92.2482   11.3802 C.3     1  UNL1        0.0760
      2 C          62.4342   90.7437   10.9947 C.2     1  UNL1        0.2406
      3 O          61.6412   91.6003   11.9366 O.2     1  UNL1       -0.2733
      4 N          63.8722   91.0676   10.7165 N.am    1  UNL1       -0.3043
      5 H          64.3928   90.5054   10.0983 H       1  UNL1        0.1494
      6 N          62.9526   86.1398   12.0769 N.am    1  UNL1       -0.2566
      7 C          63.8259   85.6291   13.1843 C.3     1  UNL1        0.1168
      8 C          62.8572   87.6138   11.8159 C.2     1  UNL1        0.3079
      9 O          63.6354   88.5772   12.6624 O.2     1  UNL1       -0.2523
     10 N          61.9839   88.1244   10.7085 N.am    1  UNL1       -0.2558
     11 C          61.1515   87.2862    9.7841 C.3     1  UNL1        0.1113
     12 C          60.4427   88.2067    8.8353 C.3     1  UNL1        0.0797
     13 C          60.8369   89.6140    9.1734 C.3     1  UNL1        0.0469
     14 C          61.7894   89.5632   10.3310 C.3     1  UNL1        0.1544
     15 N          59.5044   87.7927    7.7408 N.3     1  UNL1       -0.2699
     16 C          59.0312   88.8019    6.7370 C.3     1  UNL1        0.0897
     17 C          59.0394   86.3695    7.6500 C.3     1  UNL1        0.0897
     18 C          62.1744   85.1764   11.2305 C.3     1  UNL1        0.1413
     19 C          62.9172   81.3672   11.2894 C.ar    1  UNL1        0.0875
     20 N          62.1446   82.5590   11.7718 N.ar    1  UNL1       -0.2453
     21 C          62.6632   83.7693   11.0535 C.ar    1  UNL1        0.0858
     22 C          63.7563   83.3257   10.1271 C.ar    1  UNL1        0.0530
     23 S          63.9133   81.8410   10.2729 S.2     1  UNL1       -0.0705
     24 C          62.4791   79.6543   13.1931 C.3     1  UNL1        0.0069
     25 C          62.7271   79.9503   11.7437 C.3     1  UNL1        0.0465
     26 C          62.7850   78.8295   10.7486 C.3     1  UNL1        0.0069
     27 C          64.7174   92.2560   12.8667 C.3     1  UNL1        0.0216
     28 C          65.3664   91.0845   13.5421 C.3     1  UNL1        0.0217
     29 C          65.0527   90.7774   14.9765 C.3     1  UNL1        0.0792
     30 N          64.2929   89.5328   15.3282 N.am    1  UNL1       -0.2720
     31 C          63.1499   89.6006   16.2973 C.2     1  UNL1        0.4019
     32 O          62.7669   90.9129   16.9147 O.2     1  UNL1       -0.2264
     33 H          64.5443   88.6716   14.9230 H       1  UNL1        0.1527
     34 O          62.3900   88.3560   16.6490 O.3     1  UNL1       -0.4291
     35 C          63.0936   87.2106   17.3145 C.3     1  UNL1        0.2447
     36 C          63.1445   85.8700   16.6436 C.ar    1  UNL1        0.0714
     37 C          64.3868   85.1345   16.2362 C.ar    1  UNL1        0.1053
     38 N          63.9722   83.8394   15.6031 N.ar    1  UNL1       -0.2350
     39 C          62.4737   83.7744   15.6192 C.ar    1  UNL1        0.1343
     40 S          61.9622   85.0293   16.2623 S.2     1  UNL1       -0.0652
     41 C          65.4989   91.7148   16.0591 C.3     1  UNL1        0.0460
     42 C          66.8293   92.4002   15.9566 C.ar    1  UNL1       -0.0205
     43 C          66.9309   93.7470   15.3041 C.ar    1  UNL1       -0.0042
     44 C          68.2612   94.4322   15.2016 C.ar    1  UNL1       -0.0003
     45 C          69.4900   93.7706   15.7516 C.ar    1  UNL1       -0.0000
     46 C          69.3884   92.4238   16.4041 C.ar    1  UNL1       -0.0003
     47 C          68.0581   91.7386   16.5066 C.ar    1  UNL1       -0.0042
     48 C          64.9616   93.4210   10.5573 C.3     1  UNL1        0.0459
     49 C          66.3341   93.4355    9.9522 C.ar    1  UNL1       -0.0205
     50 C          67.2494   92.2623   10.1411 C.ar    1  UNL1       -0.0042
     51 C          68.6219   92.2768    9.5360 C.ar    1  UNL1       -0.0003
     52 C          69.0791   93.4645    8.7422 C.ar    1  UNL1       -0.0000
     53 C          68.1637   94.6378    8.5534 C.ar    1  UNL1       -0.0003
     54 C          66.7912   94.6233    9.1584 C.ar    1  UNL1       -0.0042
@<TRIPOS>BOND
     1    24    25    1
     2    25    26    1
     3    25    19    1
     4    19    20   ar
     5    20    21   ar
     6    21    18    1
     7    18     6    1
     8     6     7    1
     9     6     8   am
    10     8     9    2
    11     8    10   am
    12    10    11    1
    13    11    12    1
    14    12    15    1
    15    15    16    1
    16    15    17    1
    17    12    13    1
    18    13    14    1
    19    14     2    1
    20     2     3    2
    21     2     4   am
    22     4     1    1
    23     1    27    1
    24    27    28    1
    25    29    28    1
    26    29    41    1
    27    41    42    1
    28    42    43   ar
    29    43    44   ar
    30    44    45   ar
    31    45    46   ar
    32    46    47   ar
    33    29    30    1
    34    30    31   am
    35    31    32    2
    36    31    34    1
    37    34    35    1
    38    35    36    1
    39    36    37   ar
    40    37    38   ar
    41    38    39   ar
    42    39    40   ar
    43     1    48    1
    44    48    49    1
    45    49    50   ar
    46    50    51   ar
    47    51    52   ar
    48    52    53   ar
    49    53    54   ar
    50    21    22   ar
    51    22    23   ar
    52    23    19   ar
    53    14    10    1
    54    47    42   ar
    55    40    36   ar
    56    54    49   ar
    57     4     5    1
    58    30    33    1
@<TRIPOS>MOLECULE
*****
 54 58 0 0 0
SMALL
GASTEIGER

@<TRIPOS>ATOM
      1 C          62.0104   87.1469   10.9735 C.3     1  UNL1        0.0760
      2 C          62.5692   89.6801   10.8288 C.2     1  UNL1        0.2406
      3 O          61.3417   89.9033    9.9961 O.2     1  UNL1       -0.2733
      4 N          62.9035   88.3019   11.3175 N.am    1  UNL1       -0.3043
      5 H          63.7092   88.1554   11.8641 H       1  UNL1        0.1494
      6 N          63.7661   91.2607   15.1538 N.am    1  UNL1       -0.2566
      7 C          63.2840   90.6496   16.4359 C.3     1  UNL1        0.1168
      8 C          63.3297   90.6866   13.8385 C.2     1  UNL1        0.3079
      9 O          62.4110   89.5013   13.8055 O.2     1  UNL1       -0.2523
     10 N          63.8119   91.2977   12.5564 N.am    1  UNL1       -0.2558
     11 C          64.7283   92.4787   12.4324 C.3     1  UNL1        0.1113
     12 C          64.9452   92.7460   10.9724 C.3     1  UNL1        0.0797
     13 C          64.1627   91.7302   10.1940 C.3     1  UNL1        0.0469
     14 C          63.4623   90.8350   11.1729 C.3     1  UNL1        0.1544
     15 N          65.7952   93.8374   10.3927 N.3     1  UNL1       -0.2699
     16 C          67.0945   93.5006    9.7231 C.3     1  UNL1        0.0897
     17 C          65.3459   95.2657   10.4825 C.3     1  UNL1        0.0897
     18 C          64.6849   92.4461   15.1868 C.3     1  UNL1        0.1413
     19 C          68.5196   92.5156   15.7826 C.ar    1  UNL1        0.0875
     20 N          67.1467   93.0713   16.0195 N.ar    1  UNL1       -0.2453
     21 C          66.1701   92.2426   15.2389 C.ar    1  UNL1        0.0858
     22 C          66.9394   91.1747   14.5195 C.ar    1  UNL1        0.0530
     23 S          68.3916   91.3433   14.8555 S.2     1  UNL1       -0.0705
     24 C          70.2006   94.4651   16.1340 C.3     1  UNL1        0.0069
     25 C          69.7965   93.0399   16.3697 C.3     1  UNL1        0.0465
     26 C          70.6692   92.1392   17.1925 C.3     1  UNL1        0.0069
     27 C          61.9995   85.9230   11.8405 C.3     1  UNL1        0.0216
     28 C          62.0900   84.5616   11.2172 C.3     1  UNL1        0.0217
     29 C          63.3449   83.7525   11.3616 C.3     1  UNL1        0.0792
     30 N          64.3022   84.0461   12.4785 N.am    1  UNL1       -0.2720
     31 C          63.9349   83.7009   13.8913 C.2     1  UNL1        0.4019
     32 O          62.6103   83.0622   14.1872 O.2     1  UNL1       -0.2264
     33 H          65.1715   84.4653   12.2843 H       1  UNL1        0.1527
     34 O          64.8922   83.9945   15.0082 O.3     1  UNL1       -0.4291
     35 C          64.9041   85.3507   15.6488 C.3     1  UNL1        0.2447
     36 C          63.6531   85.8978   16.2700 C.ar    1  UNL1        0.0714
     37 C          62.4210   85.1125   16.6095 C.ar    1  UNL1        0.1053
     38 N          61.4210   86.0556   17.2100 N.ar    1  UNL1       -0.2350
     39 C          62.0351   87.4238   17.2417 C.ar    1  UNL1        0.1343
     40 S          63.4146   87.3262   16.6607 S.2     1  UNL1       -0.0652
     41 C          63.6424   82.6499   10.3892 C.3     1  UNL1        0.0460
     42 C          63.2443   81.2396   10.7096 C.ar    1  UNL1       -0.0205
     43 C          63.1592   80.2173    9.6153 C.ar    1  UNL1       -0.0042
     44 C          62.7612   78.8070    9.9357 C.ar    1  UNL1       -0.0003
     45 C          62.4484   78.4191   11.3505 C.ar    1  UNL1       -0.0000
     46 C          62.5335   79.4414   12.4448 C.ar    1  UNL1       -0.0003
     47 C          62.9315   80.8516   12.1244 C.ar    1  UNL1       -0.0042
     48 C          61.1281   87.2160    9.7623 C.3     1  UNL1        0.0459
     49 C          61.3668   86.2898    8.6068 C.ar    1  UNL1       -0.0205
     50 C          60.2296   85.9027    7.7086 C.ar    1  UNL1       -0.0042
     51 C          60.4683   84.9765    6.5530 C.ar    1  UNL1       -0.0003
     52 C          61.8442   84.4375    6.2957 C.ar    1  UNL1       -0.0000
     53 C          62.9815   84.8247    7.1939 C.ar    1  UNL1       -0.0003
     54 C          62.7428   85.7509    8.3494 C.ar    1  UNL1       -0.0042
@<TRIPOS>BOND
     1    24    25    1
     2    25    26    1
     3    25    19    1
     4    19    20   ar
     5    20    21   ar
     6    21    18    1
     7    18     6    1
     8     6     7    1
     9     6     8   am
    10     8     9    2
    11     8    10   am
    12    10    11    1
    13    11    12    1
    14    12    15    1
    15    15    16    1
    16    15    17    1
    17    12    13    1
    18    13    14    1
    19    14     2    1
    20     2     3    2
    21     2     4   am
    22     4     1    1
    23     1    27    1
    24    27    28    1
    25    29    28    1
    26    29    41    1
    27    41    42    1
    28    42    43   ar
    29    43    44   ar
    30    44    45   ar
    31    45    46   ar
    32    46    47   ar
    33    29    30    1
    34    30    31   am
    35    31    32    2
    36    31    34    1
    37    34    35    1
    38    35    36    1
    39    36    37   ar
    40    37    38   ar
    41    38    39   ar
    42    39    40   ar
    43     1    48    1
    44    48    49    1
    45    49    50   ar
    46    50    51   ar
    47    51    52   ar
    48    52    53   ar
    49    53    54   ar
    50    21    22   ar
    51    22    23   ar
    52    23    19   ar
    53    14    10    1
    54    47    42   ar
    55    40    36   ar
    56    54    49   ar
    57     4     5    1
    58    30    33    1
@<TRIPOS>MOLECULE
*****
 54 58 0 0 0
SMALL
GASTEIGER

@<TRIPOS>ATOM
      1 C          63.5230   85.2176   13.2093 C.3     1  UNL1        0.0760
      2 C          62.0248   85.8172   11.1731 C.2     1  UNL1        0.2406
      3 O          61.0119   86.4251   12.0974 O.2     1  UNL1       -0.2733
      4 N          63.2804   85.2134   11.7290 N.am    1  UNL1       -0.3043
      5 H          63.9453   84.8144   11.1224 H       1  UNL1        0.1494
      6 N          59.8868   89.1640    8.5532 N.am    1  UNL1       -0.2566
      7 C          59.3290   90.4398    9.1107 C.3     1  UNL1        0.1168
      8 C          60.5436   88.1707    9.4654 C.2     1  UNL1        0.3079
      9 O          60.6425   88.4535   10.9352 O.2     1  UNL1       -0.2523
     10 N          61.1013   86.8949    8.9079 N.am    1  UNL1       -0.2558
     11 C          61.0763   86.4766    7.4675 C.3     1  UNL1        0.1113
     12 C          61.7416   85.1364    7.3623 C.3     1  UNL1        0.0797
     13 C          62.1779   84.7263    8.7376 C.3     1  UNL1        0.0469
     14 C          61.7823   85.8130    9.6928 C.3     1  UNL1        0.1544
     15 N          61.9364   84.3453    6.1029 N.3     1  UNL1       -0.2699
     16 C          60.8183   83.5009    5.5672 C.3     1  UNL1        0.0897
     17 C          63.2492   84.3986    5.3792 C.3     1  UNL1        0.0897
     18 C          59.7878   88.8812    7.0833 C.3     1  UNL1        0.1413
     19 C          60.0248   91.6803    4.4050 C.ar    1  UNL1        0.0875
     20 N          60.6459   90.5660    5.1939 N.ar    1  UNL1       -0.2453
     21 C          59.5994   90.0098    6.1135 C.ar    1  UNL1        0.0858
     22 C          58.3316   90.7804    5.8929 C.ar    1  UNL1        0.0530
     23 S          58.5944   91.8129    4.8370 S.2     1  UNL1       -0.0705
     24 C          59.9673   93.6186    2.6759 C.3     1  UNL1        0.0069
     25 C          60.7132   92.5155    3.3664 C.3     1  UNL1        0.0465
     26 C          62.1474   92.2476    3.0183 C.3     1  UNL1        0.0069
     27 C          64.5582   86.1302   13.7970 C.3     1  UNL1        0.0216
     28 C          64.1458   87.2287   14.7316 C.3     1  UNL1        0.0217
     29 C          64.0380   88.6385   14.2307 C.3     1  UNL1        0.0792
     30 N          64.6091   89.7667   15.0376 N.am    1  UNL1       -0.2720
     31 C          63.7963   90.3926   16.1320 C.2     1  UNL1        0.4019
     32 O          62.4126   89.8902   16.4196 O.2     1  UNL1       -0.2264
     33 H          65.5173   90.0965   14.8488 H       1  UNL1        0.1527
     34 O          64.3674   91.5208   16.9389 O.3     1  UNL1       -0.4291
     35 C          64.8926   92.7451   16.2495 C.3     1  UNL1        0.2447
     36 C          66.3156   92.7876   15.7771 C.ar    1  UNL1        0.0714
     37 C          66.8225   93.5204   14.5704 C.ar    1  UNL1        0.1053
     38 N          68.3018   93.2904   14.4760 N.ar    1  UNL1       -0.2350
     39 C          68.7091   92.4155   15.6243 C.ar    1  UNL1        0.1343
     40 S          67.4816   92.1047   16.4284 S.2     1  UNL1       -0.0652
     41 C          63.3592   88.9201   12.9232 C.3     1  UNL1        0.0460
     42 C          63.7364   90.1352   12.1286 C.ar    1  UNL1       -0.0205
     43 C          64.7551   91.0962   12.6659 C.ar    1  UNL1       -0.0042
     44 C          65.1322   92.3112   11.8714 C.ar    1  UNL1       -0.0003
     45 C          64.4907   92.5653   10.5395 C.ar    1  UNL1       -0.0000
     46 C          63.4720   91.6043   10.0022 C.ar    1  UNL1       -0.0003
     47 C          63.0949   90.3893   10.7967 C.ar    1  UNL1       -0.0042
     48 C          62.7304   84.3091   14.1018 C.3     1  UNL1        0.0459
     49 C          62.5618   82.8630   13.7406 C.ar    1  UNL1       -0.0205
     50 C          61.6306   81.9954   14.5342 C.ar    1  UNL1       -0.0042
     51 C          61.4620   80.5493   14.1730 C.ar    1  UNL1       -0.0003
     52 C          62.2247   79.9709   13.0181 C.ar    1  UNL1       -0.0000
     53 C          63.1560   80.8386   12.2244 C.ar    1  UNL1       -0.0003
     54 C          63.3246   82.2846   12.5856 C.ar    1  UNL1       -0.0042
@<TRIPOS>BOND
     1    24    25    1
     2    25    26    1
     3    25    19    1
     4    19    20   ar
     5    20    21   ar
     6    21    18    1
     7    18     6    1
     8     6     7    1
     9     6     8   am
    10     8     9    2
    11     8    10   am
    12    10    11    1
    13    11    12    1
    14    12    15    1
    15    15    16    1
    16    15    17    1
    17    12    13    1
    18    13    14    1
    19    14     2    1
    20     2     3    2
    21     2     4   am
    22     4     1    1
    23     1    27    1
    24    27    28    1
    25    29    28    1
    26    29    41    1
    27    41    42    1
    28    42    43   ar
    29    43    44   ar
    30    44    45   ar
    31    45    46   ar
    32    46    47   ar
    33    29    30    1
    34    30    31   am
    35    31    32    2
    36    31    34    1
    37    34    35    1
    38    35    36    1
    39    36    37   ar
    40    37    38   ar
    41    38    39   ar
    42    39    40   ar
    43     1    48    1
    44    48    49    1
    45    49    50   ar
    46    50    51   ar
    47    51    52   ar
    48    52    53   ar
    49    53    54   ar
    50    21    22   ar
    51    22    23   ar
    52    23    19   ar
    53    14    10    1
    54    47    42   ar
    55    40    36   ar
    56    54    49   ar
    57     4     5    1
    58    30    33    1
@<TRIPOS>MOLECULE
*****
 54 58 0 0 0
SMALL
GASTEIGER

@<TRIPOS>ATOM
      1 C          61.6210   90.3224   10.8686 C.3     1  UNL1        0.0760
      2 C          62.6699   88.0820   11.6628 C.2     1  UNL1        0.2406
      3 O          63.0659   87.7668   10.2508 O.2     1  UNL1       -0.2733
      4 N          61.9475   89.3599   11.9718 N.am    1  UNL1       -0.3043
      5 H          61.6876   89.5667   12.8986 H       1  UNL1        0.1494
      6 N          63.3621   83.3864   11.3338 N.am    1  UNL1       -0.2566
      7 C          63.2826   82.6122   10.0516 C.3     1  UNL1        0.1168
      8 C          63.1270   84.8679   11.3314 C.2     1  UNL1        0.3079
      9 O          62.8123   85.5751   10.0464 O.2     1  UNL1       -0.2523
     10 N          63.2065   85.6420   12.6136 N.am    1  UNL1       -0.2558
     11 C          63.5100   85.0749   13.9687 C.3     1  UNL1        0.1113
     12 C          63.4875   86.2017   14.9585 C.3     1  UNL1        0.0797
     13 C          63.1701   87.4653   14.2152 C.3     1  UNL1        0.0469
     14 C          62.9964   87.1195   12.7660 C.3     1  UNL1        0.1544
     15 N          63.7384   86.0852   16.4327 N.3     1  UNL1       -0.2699
     16 C          64.6521   85.0168   16.9559 C.3     1  UNL1        0.0897
     17 C          63.0757   87.0371   17.3838 C.3     1  UNL1        0.0897
     18 C          63.6767   82.6792   12.6187 C.3     1  UNL1        0.1413
     19 C          60.7698   80.4241   13.8553 C.ar    1  UNL1        0.0875
     20 N          61.2812   81.7354   13.3368 N.ar    1  UNL1       -0.2453
     21 C          62.7609   81.6058   13.1278 C.ar    1  UNL1        0.0858
     22 C          63.1640   80.2145   13.5171 C.ar    1  UNL1        0.0530
     23 S          61.9334   79.4840   13.9668 S.2     1  UNL1       -0.0705
     24 C          58.2866   81.1611   14.0561 C.3     1  UNL1        0.0069
     25 C          59.3449   80.1082   14.2016 C.3     1  UNL1        0.0465
     26 C          58.9783   78.7394   14.6935 C.3     1  UNL1        0.0069
     27 C          62.6392   91.3322   10.4286 C.3     1  UNL1        0.0216
     28 C          64.0923   91.1114   10.7277 C.3     1  UNL1        0.0217
     29 C          64.7189   91.7619   11.9254 C.3     1  UNL1        0.0792
     30 N          65.1450   93.1987   11.8613 N.am    1  UNL1       -0.2720
     31 C          66.5354   93.5498   11.4214 C.2     1  UNL1        0.4019
     32 O          67.4997   92.4641   11.0455 O.2     1  UNL1       -0.2264
     33 H          64.5120   93.9113   12.1081 H       1  UNL1        0.1527
     34 O          66.9615   94.9866   11.3574 O.3     1  UNL1       -0.4291
     35 C          66.0062   96.0307   10.8603 C.3     1  UNL1        0.2447
     36 C          65.8309   96.2461    9.3862 C.ar    1  UNL1        0.0714
     37 C          64.6182   96.8222    8.7173 C.ar    1  UNL1        0.1053
     38 N          64.8754   96.8553    7.2399 N.ar    1  UNL1       -0.2350
     39 C          66.2471   96.2996    6.9957 C.ar    1  UNL1        0.1343
     40 S          66.8376   95.9231    8.3222 S.2     1  UNL1       -0.0652
     41 C          64.9194   90.9757   13.1869 C.3     1  UNL1        0.0460
     42 C          65.8155   91.5060   14.2668 C.ar    1  UNL1       -0.0205
     43 C          67.3037   91.3666   14.1420 C.ar    1  UNL1       -0.0042
     44 C          68.1997   91.8968   15.2218 C.ar    1  UNL1       -0.0003
     45 C          67.6075   92.5664   16.4263 C.ar    1  UNL1       -0.0000
     46 C          66.1192   92.7058   16.5511 C.ar    1  UNL1       -0.0003
     47 C          65.2232   92.1756   15.4713 C.ar    1  UNL1       -0.0042
     48 C          60.2764   90.2751   10.2055 C.3     1  UNL1        0.0459
     49 C          59.9439   89.1565    9.2630 C.ar    1  UNL1       -0.0205
     50 C          59.6803   89.4486    7.8156 C.ar    1  UNL1       -0.0042
     51 C          59.3478   88.3300    6.8732 C.ar    1  UNL1       -0.0003
     52 C          59.2789   86.9193    7.3782 C.ar    1  UNL1       -0.0000
     53 C          59.5425   86.6271    8.8257 C.ar    1  UNL1       -0.0003
     54 C          59.8750   87.7457    9.7681 C.ar    1  UNL1       -0.0042
@<TRIPOS>BOND
     1    24    25    1
     2    25    26    1
     3    25    19    1
     4    19    20   ar
     5    20    21   ar
     6    21    18    1
     7    18     6    1
     8     6     7    1
     9     6     8   am
    10     8     9    2
    11     8    10   am
    12    10    11    1
    13    11    12    1
    14    12    15    1
    15    15    16    1
    16    15    17    1
    17    12    13    1
    18    13    14    1
    19    14     2    1
    20     2     3    2
    21     2     4   am
    22     4     1    1
    23     1    27    1
    24    27    28    1
    25    29    28    1
    26    29    41    1
    27    41    42    1
    28    42    43   ar
    29    43    44   ar
    30    44    45   ar
    31    45    46   ar
    32    46    47   ar
    33    29    30    1
    34    30    31   am
    35    31    32    2
    36    31    34    1
    37    34    35    1
    38    35    36    1
    39    36    37   ar
    40    37    38   ar
    41    38    39   ar
    42    39    40   ar
    43     1    48    1
    44    48    49    1
    45    49    50   ar
    46    50    51   ar
    47    51    52   ar
    48    52    53   ar
    49    53    54   ar
    50    21    22   ar
    51    22    23   ar
    52    23    19   ar
    53    14    10    1
    54    47    42   ar
    55    40    36   ar
    56    54    49   ar
    57     4     5    1
    58    30    33    1
@<TRIPOS>MOLECULE
*****
 54 58 0 0 0
SMALL
GASTEIGER

@<TRIPOS>ATOM
      1 C          64.2809   92.0480   11.2279 C.3     1  UNL1        0.0760
      2 C          62.4356   90.2737   10.7838 C.2     1  UNL1        0.2406
      3 O          61.3858   91.2620   11.1975 O.2     1  UNL1       -0.2733
      4 N          63.8832   90.6667   10.7990 N.am    1  UNL1       -0.3043
      5 H          64.5722   90.0181   10.5275 H       1  UNL1        0.1494
      6 N          63.4677   86.1438   12.9086 N.am    1  UNL1       -0.2566
      7 C          64.2770   86.0238   14.1658 C.3     1  UNL1        0.1168
      8 C          63.1974   87.4953   12.3167 C.2     1  UNL1        0.3079
      9 O          63.7365   88.7269   12.9822 O.2     1  UNL1       -0.2523
     10 N          62.3881   87.6154   11.0596 N.am    1  UNL1       -0.2558
     11 C          61.7868   86.4794   10.2862 C.3     1  UNL1        0.1113
     12 C          61.0651   87.0544    9.1036 C.3     1  UNL1        0.0797
     13 C          61.2203   88.5457    9.1461 C.3     1  UNL1        0.0469
     14 C          62.0379   88.8925   10.3549 C.3     1  UNL1        0.1544
     15 N          60.3191   86.2749    8.0616 N.3     1  UNL1       -0.2699
     16 C          61.0123   85.1816    7.3037 C.3     1  UNL1        0.0897
     17 C          58.8801   86.5886    7.7774 C.3     1  UNL1        0.0897
     18 C          62.9286   84.9123   12.2432 C.3     1  UNL1        0.1413
     19 C          61.8382   81.4901   13.7144 C.ar    1  UNL1        0.0875
     20 N          62.1330   82.3780   12.5420 N.ar    1  UNL1       -0.2453
     21 C          62.5443   83.7207   13.0692 C.ar    1  UNL1        0.0858
     22 C          62.5038   83.6626   14.5675 C.ar    1  UNL1        0.0530
     23 S          62.0674   82.2840   14.9664 S.2     1  UNL1       -0.0705
     24 C          62.3116   79.0131   13.0895 C.3     1  UNL1        0.0069
     25 C          61.3926   80.0594   13.6469 C.3     1  UNL1        0.0465
     26 C          60.0279   79.6750   14.1367 C.3     1  UNL1        0.0069
     27 C          64.2737   92.4128   12.6828 C.3     1  UNL1        0.0216
     28 C          65.5555   92.4147   13.4619 C.3     1  UNL1        0.0217
     29 C          65.8058   91.3581   14.4968 C.3     1  UNL1        0.0792
     30 N          64.6513   90.6366   15.1265 N.am    1  UNL1       -0.2720
     31 C          63.9399   91.2408   16.3009 C.2     1  UNL1        0.4019
     32 O          64.3831   92.5663   16.8454 O.2     1  UNL1       -0.2264
     33 H          64.3604   89.7666   14.7691 H       1  UNL1        0.1527
     34 O          62.7854   90.5193   16.9306 O.3     1  UNL1       -0.4291
     35 C          62.0983   89.4117   16.1884 C.3     1  UNL1        0.2447
     36 C          62.1496   88.0093   16.7181 C.ar    1  UNL1        0.0714
     37 C          61.1815   86.9095   16.3969 C.ar    1  UNL1        0.1053
     38 N          61.6115   85.6809   17.1424 N.ar    1  UNL1       -0.2350
     39 C          62.8454   86.0214   17.9243 C.ar    1  UNL1        0.1343
     40 S          63.1780   87.4604   17.6621 S.2     1  UNL1       -0.0652
     41 C          67.2106   91.0230   14.9019 C.3     1  UNL1        0.0460
     42 C          68.1911   92.1216   15.1879 C.ar    1  UNL1       -0.0205
     43 C          69.5206   92.1399   14.4936 C.ar    1  UNL1       -0.0042
     44 C          70.5010   93.2385   14.7796 C.ar    1  UNL1       -0.0003
     45 C          70.1518   94.3189   15.7599 C.ar    1  UNL1       -0.0000
     46 C          68.8223   94.3007   16.4541 C.ar    1  UNL1       -0.0003
     47 C          67.8420   93.2020   16.1681 C.ar    1  UNL1       -0.0042
     48 C          64.6858   93.0645   10.2018 C.3     1  UNL1        0.0459
     49 C          66.1349   93.2520    9.8630 C.ar    1  UNL1       -0.0205
     50 C          66.6160   94.5684    9.3286 C.ar    1  UNL1       -0.0042
     51 C          68.0651   94.7560    8.9899 C.ar    1  UNL1       -0.0003
     52 C          69.0333   93.6271    9.1855 C.ar    1  UNL1       -0.0000
     53 C          68.5522   92.3106    9.7200 C.ar    1  UNL1       -0.0003
     54 C          67.1031   92.1231   10.0587 C.ar    1  UNL1       -0.0042
@<TRIPOS>BOND
     1    24    25    1
     2    25    26    1
     3    25    19    1
     4    19    20   ar
     5    20    21   ar
     6    21    18    1
     7    18     6    1
     8     6     7    1
     9     6     8   am
    10     8     9    2
    11     8    10   am
    12    10    11    1
    13    11    12    1
    14    12    15    1
    15    15    16    1
    16    15    17    1
    17    12    13    1
    18    13    14    1
    19    14     2    1
    20     2     3    2
    21     2     4   am
    22     4     1    1
    23     1    27    1
    24    27    28    1
    25    29    28    1
    26    29    41    1
    27    41    42    1
    28    42    43   ar
    29    43    44   ar
    30    44    45   ar
    31    45    46   ar
    32    46    47   ar
    33    29    30    1
    34    30    31   am
    35    31    32    2
    36    31    34    1
    37    34    35    1
    38    35    36    1
    39    36    37   ar
    40    37    38   ar
    41    38    39   ar
    42    39    40   ar
    43     1    48    1
    44    48    49    1
    45    49    50   ar
    46    50    51   ar
    47    51    52   ar
    48    52    53   ar
    49    53    54   ar
    50    21    22   ar
    51    22    23   ar
    52    23    19   ar
    53    14    10    1
    54    47    42   ar
    55    40    36   ar
    56    54    49   ar
    57     4     5    1
    58    30    33    1
@<TRIPOS>MOLECULE
*****
 54 58 0 0 0
SMALL
GASTEIGER

@<TRIPOS>ATOM
      1 C          61.6531   90.0745   10.5947 C.3     1  UNL1        0.0760
      2 C          61.9138   87.7794   11.7843 C.2     1  UNL1        0.2406
      3 O          60.4750   87.8340   12.2048 O.2     1  UNL1       -0.2733
      4 N          62.5029   88.8997   10.9792 N.am    1  UNL1       -0.3043
      5 H          63.4472   88.8640   10.7031 H       1  UNL1        0.1494
      6 N          63.3814   84.2028    9.0112 N.am    1  UNL1       -0.2566
      7 C          63.0476   84.0764    7.5544 C.3     1  UNL1        0.1168
      8 C          62.8686   85.3713    9.7996 C.2     1  UNL1        0.3079
      9 O          62.0217   86.4135    9.1310 O.2     1  UNL1       -0.2523
     10 N          63.2025   85.4978   11.2564 N.am    1  UNL1       -0.2558
     11 C          64.0338   84.5396   12.0569 C.3     1  UNL1        0.1113
     12 C          64.1088   85.0542   13.4638 C.3     1  UNL1        0.0797
     13 C          63.3238   86.3305   13.5329 C.3     1  UNL1        0.0469
     14 C          62.7636   86.6047   12.1687 C.3     1  UNL1        0.1544
     15 N          64.8404   84.4064   14.6017 N.3     1  UNL1       -0.2699
     16 C          66.2530   84.8059   14.9096 C.3     1  UNL1        0.0897
     17 C          64.1593   83.3589   15.4318 C.3     1  UNL1        0.0897
     18 C          64.2283   83.1607    9.6798 C.3     1  UNL1        0.1413
     19 C          62.5226   80.7224   12.1718 C.ar    1  UNL1        0.0875
     20 N          63.1034   82.0658   11.8432 N.ar    1  UNL1       -0.2453
     21 C          63.5795   82.0297   10.4213 C.ar    1  UNL1        0.0858
     22 C          63.2930   80.6641    9.8710 C.ar    1  UNL1        0.0530
     23 S          62.6398   79.8560   10.9529 S.2     1  UNL1       -0.0705
     24 C          60.9503   81.2190   14.1796 C.3     1  UNL1        0.0069
     25 C          61.9288   80.3166   13.4881 C.3     1  UNL1        0.0465
     26 C          62.3136   79.0084   14.1130 C.3     1  UNL1        0.0069
     27 C          62.2533   91.4480   10.5388 C.3     1  UNL1        0.0216
     28 C          63.6641   91.6311   10.0633 C.3     1  UNL1        0.0217
     29 C          64.7020   92.1888   10.9917 C.3     1  UNL1        0.0792
     30 N          64.3604   92.4495   12.4288 N.am    1  UNL1       -0.2720
     31 C          64.1866   91.3014   13.3785 C.2     1  UNL1        0.4019
     32 O          64.3544   89.8928   12.8911 O.2     1  UNL1       -0.2264
     33 H          64.2502   93.3740   12.7488 H       1  UNL1        0.1527
     34 O          63.8450   91.5620   14.8157 O.3     1  UNL1       -0.4291
     35 C          64.9386   91.7127   15.8311 C.3     1  UNL1        0.2447
     36 C          66.3216   92.0940   15.3929 C.ar    1  UNL1        0.0714
     37 C          67.0269   91.5953   14.1667 C.ar    1  UNL1        0.1053
     38 N          68.3833   92.2341   14.1199 N.ar    1  UNL1       -0.2350
     39 C          68.5163   93.1276   15.3173 C.ar    1  UNL1        0.1343
     40 S          67.2421   93.0411   16.1041 S.2     1  UNL1       -0.0652
     41 C          66.0814   92.4859   10.4829 C.3     1  UNL1        0.0460
     42 C          66.4670   93.8942   10.1394 C.ar    1  UNL1       -0.0205
     43 C          66.0530   95.0246   11.0342 C.ar    1  UNL1       -0.0042
     44 C          66.4386   96.4329   10.6907 C.ar    1  UNL1       -0.0003
     45 C          67.2382   96.7108    9.4524 C.ar    1  UNL1       -0.0000
     46 C          67.6522   95.5804    8.5576 C.ar    1  UNL1       -0.0003
     47 C          67.2666   94.1721    8.9011 C.ar    1  UNL1       -0.0042
     48 C          60.2030   89.8757   10.2663 C.3     1  UNL1        0.0459
     49 C          59.8105   89.1149    9.0345 C.ar    1  UNL1       -0.0205
     50 C          59.8589   89.7837    7.6927 C.ar    1  UNL1       -0.0042
     51 C          59.4664   89.0230    6.4610 C.ar    1  UNL1       -0.0003
     52 C          59.0255   87.5935    6.5710 C.ar    1  UNL1       -0.0000
     53 C          58.9771   86.9246    7.9128 C.ar    1  UNL1       -0.0003
     54 C          59.3696   87.6854    9.1446 C.ar    1  UNL1       -0.0042
@<TRIPOS>BOND
     1    24    25    1
     2    25    26    1
     3    25    19    1
     4    19    20   ar
     5    20    21   ar
     6    21    18    1
     7    18     6    1
     8     6     7    1
     9     6     8   am
    10     8     9    2
    11     8    10   am
    12    10    11    1
    13    11    12    1
    14    12    15    1
    15    15    16    1
    16    15    17    1
    17    12    13    1
    18    13    14    1
    19    14     2    1
    20     2     3    2
    21     2     4   am
    22     4     1    1
    23     1    27    1
    24    27    28    1
    25    29    28    1
    26    29    41    1
    27    41    42    1
    28    42    43   ar
    29    43    44   ar
    30    44    45   ar
    31    45    46   ar
    32    46    47   ar
    33    29    30    1
    34    30    31   am
    35    31    32    2
    36    31    34    1
    37    34    35    1
    38    35    36    1
    39    36    37   ar
    40    37    38   ar
    41    38    39   ar
    42    39    40   ar
    43     1    48    1
    44    48    49    1
    45    49    50   ar
    46    50    51   ar
    47    51    52   ar
    48    52    53   ar
    49    53    54   ar
    50    21    22   ar
    51    22    23   ar
    52    23    19   ar
    53    14    10    1
    54    47    42   ar
    55    40    36   ar
    56    54    49   ar
    57     4     5    1
    58    30    33    1
@<TRIPOS>MOLECULE
*****
 54 58 0 0 0
SMALL
GASTEIGER

@<TRIPOS>ATOM
      1 C          61.7787   90.0200   10.6028 C.3     1  UNL1        0.0760
      2 C          62.0012   87.7074   11.7658 C.2     1  UNL1        0.2406
      3 O          60.5609   87.7765   12.1789 O.2     1  UNL1       -0.2733
      4 N          62.6101   88.8292   10.9778 N.am    1  UNL1       -0.3043
      5 H          63.5555   88.7838   10.7067 H       1  UNL1        0.1494
      6 N          63.3863   84.1143    8.9717 N.am    1  UNL1       -0.2566
      7 C          63.0403   83.9984    7.5169 C.3     1  UNL1        0.1168
      8 C          62.8996   85.2891    9.7672 C.2     1  UNL1        0.3079
      9 O          62.0668   86.3482    9.1077 O.2     1  UNL1       -0.2523
     10 N          63.2456   85.4050   11.2221 N.am    1  UNL1       -0.2558
     11 C          64.0653   84.4297   12.0139 C.3     1  UNL1        0.1113
     12 C          64.1590   84.9384   13.4219 C.3     1  UNL1        0.0797
     13 C          63.3971   86.2282   13.5003 C.3     1  UNL1        0.0469
     14 C          62.8327   86.5166   12.1408 C.3     1  UNL1        0.1544
     15 N          64.8867   84.2741   14.5527 N.3     1  UNL1       -0.2699
     16 C          64.2785   83.0891   15.2426 C.3     1  UNL1        0.0897
     17 C          66.2225   84.7946   14.9938 C.3     1  UNL1        0.0897
     18 C          64.2191   83.0552    9.6313 C.3     1  UNL1        0.1413
     19 C          62.5000   80.6767   12.1714 C.ar    1  UNL1        0.0875
     20 N          63.1082   82.0028   11.8229 N.ar    1  UNL1       -0.2453
     21 C          63.5562   81.9457   10.3925 C.ar    1  UNL1        0.0858
     22 C          63.2249   80.5844    9.8570 C.ar    1  UNL1        0.0530
     23 S          62.5721   79.7999   10.9563 S.2     1  UNL1       -0.0705
     24 C          60.8711   81.1556   14.1379 C.3     1  UNL1        0.0069
     25 C          61.9213   80.2943   13.5014 C.3     1  UNL1        0.0465
     26 C          62.3928   79.0507   14.1949 C.3     1  UNL1        0.0069
     27 C          62.4096   91.3780   10.5164 C.3     1  UNL1        0.0216
     28 C          63.8864   91.5337   10.7279 C.3     1  UNL1        0.0217
     29 C          64.4223   91.8121   12.1010 C.3     1  UNL1        0.0792
     30 N          63.5416   91.6284   13.3012 N.am    1  UNL1       -0.2720
     31 C          63.5919   90.3469   14.0792 C.2     1  UNL1        0.4019
     32 O          64.5228   89.2491   13.6569 O.2     1  UNL1       -0.2264
     33 H          62.9307   92.3489   13.5784 H       1  UNL1        0.1527
     34 O          62.7112   90.1632   15.2795 O.3     1  UNL1       -0.4291
     35 C          63.2106   89.3920   16.4652 C.3     1  UNL1        0.2447
     36 C          62.7165   87.9979   16.7154 C.ar    1  UNL1        0.0714
     37 C          61.2817   87.5612   16.7348 C.ar    1  UNL1        0.1053
     38 N          61.2489   86.0892   17.0215 N.ar    1  UNL1       -0.2350
     39 C          62.6636   85.6162   17.1793 C.ar    1  UNL1        0.1343
     40 S          63.5706   86.7958   16.9901 S.2     1  UNL1       -0.0652
     41 C          65.8388   92.2743   12.2737 C.3     1  UNL1        0.0460
     42 C          66.5377   92.9854   11.1530 C.ar    1  UNL1       -0.0205
     43 C          66.1926   94.4108   10.8384 C.ar    1  UNL1       -0.0042
     44 C          66.8916   95.1219    9.7178 C.ar    1  UNL1       -0.0003
     45 C          67.9356   94.4075    8.9117 C.ar    1  UNL1       -0.0000
     46 C          68.2807   92.9821    9.2264 C.ar    1  UNL1       -0.0003
     47 C          67.5818   92.2710   10.3470 C.ar    1  UNL1       -0.0042
     48 C          60.3162   89.8527   10.3141 C.3     1  UNL1        0.0459
     49 C          59.8739   89.1068    9.0902 C.ar    1  UNL1       -0.0205
     50 C          59.4264   87.6795    9.2025 C.ar    1  UNL1       -0.0042
     51 C          58.9841   86.9337    7.9785 C.ar    1  UNL1       -0.0003
     52 C          58.9892   87.6151    6.6423 C.ar    1  UNL1       -0.0000
     53 C          59.4366   89.0425    6.5300 C.ar    1  UNL1       -0.0003
     54 C          59.8789   89.7883    7.7539 C.ar    1  UNL1       -0.0042
@<TRIPOS>BOND
     1    24    25    1
     2    25    26    1
     3    25    19    1
     4    19    20   ar
     5    20    21   ar
     6    21    18    1
     7    18     6    1
     8     6     7    1
     9     6     8   am
    10     8     9    2
    11     8    10   am
    12    10    11    1
    13    11    12    1
    14    12    15    1
    15    15    16    1
    16    15    17    1
    17    12    13    1
    18    13    14    1
    19    14     2    1
    20     2     3    2
    21     2     4   am
    22     4     1    1
    23     1    27    1
    24    27    28    1
    25    29    28    1
    26    29    41    1
    27    41    42    1
    28    42    43   ar
    29    43    44   ar
    30    44    45   ar
    31    45    46   ar
    32    46    47   ar
    33    29    30    1
    34    30    31   am
    35    31    32    2
    36    31    34    1
    37    34    35    1
    38    35    36    1
    39    36    37   ar
    40    37    38   ar
    41    38    39   ar
    42    39    40   ar
    43     1    48    1
    44    48    49    1
    45    49    50   ar
    46    50    51   ar
    47    51    52   ar
    48    52    53   ar
    49    53    54   ar
    50    21    22   ar
    51    22    23   ar
    52    23    19   ar
    53    14    10    1
    54    47    42   ar
    55    40    36   ar
    56    54    49   ar
    57     4     5    1
    58    30    33    1
@<TRIPOS>MOLECULE
*****
 54 58 0 0 0
SMALL
GASTEIGER

@<TRIPOS>ATOM
      1 C          61.7170   90.3849   10.7752 C.3     1  UNL1        0.0760
      2 C          62.6245   88.0876   11.5809 C.2     1  UNL1        0.2406
      3 O          62.8463   87.6754   10.1558 O.2     1  UNL1       -0.2733
      4 N          62.0598   89.4424   11.8906 N.am    1  UNL1       -0.3043
      5 H          61.9143   89.7129   12.8260 H       1  UNL1        0.1494
      6 N          63.3744   83.3968   11.3159 N.am    1  UNL1       -0.2566
      7 C          63.2996   82.6034   10.0452 C.3     1  UNL1        0.1168
      8 C          63.1206   84.8750   11.2933 C.2     1  UNL1        0.3079
      9 O          62.7920   85.5598    9.9998 O.2     1  UNL1       -0.2523
     10 N          63.1954   85.6684   12.5640 N.am    1  UNL1       -0.2558
     11 C          63.5114   85.1244   13.9258 C.3     1  UNL1        0.1113
     12 C          63.4786   86.2649   14.8996 C.3     1  UNL1        0.0797
     13 C          63.1424   87.5137   14.1397 C.3     1  UNL1        0.0469
     14 C          62.9674   87.1451   12.6963 C.3     1  UNL1        0.1544
     15 N          63.7368   86.1727   16.3743 N.3     1  UNL1       -0.2699
     16 C          63.1709   87.2078   17.3008 C.3     1  UNL1        0.0897
     17 C          64.5607   85.0455   16.9224 C.3     1  UNL1        0.0897
     18 C          63.7029   82.7120   12.6094 C.3     1  UNL1        0.1413
     19 C          60.8274   80.4228   13.8567 C.ar    1  UNL1        0.0875
     20 N          61.3158   81.7270   13.2997 N.ar    1  UNL1       -0.2453
     21 C          62.8039   81.6330   13.1363 C.ar    1  UNL1        0.0858
     22 C          63.2352   80.2707   13.5923 C.ar    1  UNL1        0.0530
     23 S          62.0136   79.5226   14.0376 S.2     1  UNL1       -0.0705
     24 C          59.0447   78.6854   14.6006 C.3     1  UNL1        0.0069
     25 C          59.4028   80.0789   14.1766 C.3     1  UNL1        0.0465
     26 C          58.3363   81.1286   14.0726 C.3     1  UNL1        0.0069
     27 C          62.7396   91.3638   10.2795 C.3     1  UNL1        0.0216
     28 C          64.2012   91.0605   10.4264 C.3     1  UNL1        0.0217
     29 C          65.0593   91.9153   11.3114 C.3     1  UNL1        0.0792
     30 N          64.5692   92.3156   12.6713 N.am    1  UNL1       -0.2720
     31 C          64.5217   91.3051   13.7789 C.2     1  UNL1        0.4019
     32 O          64.9644   89.8943   13.5265 O.2     1  UNL1       -0.2264
     33 H          64.2786   93.2415   12.8370 H       1  UNL1        0.1527
     34 O          64.0315   91.7054   15.1388 O.3     1  UNL1       -0.4291
     35 C          64.9864   92.2860   16.1393 C.3     1  UNL1        0.2447
     36 C          66.3864   92.6319   15.7268 C.ar    1  UNL1        0.0714
     37 C          66.7739   93.5726   14.6246 C.ar    1  UNL1        0.1053
     38 N          68.2718   93.6199   14.5607 N.ar    1  UNL1       -0.2350
     39 C          68.8101   92.7084   15.6234 C.ar    1  UNL1        0.1343
     40 S          67.6449   92.0978   16.3441 S.2     1  UNL1       -0.0652
     41 C          66.4076   92.3697   10.8363 C.3     1  UNL1        0.0460
     42 C          66.6120   93.7933   10.4099 C.ar    1  UNL1       -0.0205
     43 C          67.2936   94.0959    9.1085 C.ar    1  UNL1       -0.0042
     44 C          67.4980   95.5194    8.6822 C.ar    1  UNL1       -0.0003
     45 C          67.0208   96.6403    9.5573 C.ar    1  UNL1       -0.0000
     46 C          66.3392   96.3377   10.8587 C.ar    1  UNL1       -0.0003
     47 C          66.1348   94.9142   11.2851 C.ar    1  UNL1       -0.0042
     48 C          60.3514   90.3484   10.1556 C.3     1  UNL1        0.0459
     49 C          59.9757   89.2260    9.2340 C.ar    1  UNL1       -0.0205
     50 C          59.8006   87.8380    9.7751 C.ar    1  UNL1       -0.0042
     51 C          59.4250   86.7157    8.8535 C.ar    1  UNL1       -0.0003
     52 C          59.2244   86.9813    7.3909 C.ar    1  UNL1       -0.0000
     53 C          59.3995   88.3694    6.8498 C.ar    1  UNL1       -0.0003
     54 C          59.7752   89.4917    7.7714 C.ar    1  UNL1       -0.0042
@<TRIPOS>BOND
     1    24    25    1
     2    25    26    1
     3    25    19    1
     4    19    20   ar
     5    20    21   ar
     6    21    18    1
     7    18     6    1
     8     6     7    1
     9     6     8   am
    10     8     9    2
    11     8    10   am
    12    10    11    1
    13    11    12    1
    14    12    15    1
    15    15    16    1
    16    15    17    1
    17    12    13    1
    18    13    14    1
    19    14     2    1
    20     2     3    2
    21     2     4   am
    22     4     1    1
    23     1    27    1
    24    27    28    1
    25    29    28    1
    26    29    41    1
    27    41    42    1
    28    42    43   ar
    29    43    44   ar
    30    44    45   ar
    31    45    46   ar
    32    46    47   ar
    33    29    30    1
    34    30    31   am
    35    31    32    2
    36    31    34    1
    37    34    35    1
    38    35    36    1
    39    36    37   ar
    40    37    38   ar
    41    38    39   ar
    42    39    40   ar
    43     1    48    1
    44    48    49    1
    45    49    50   ar
    46    50    51   ar
    47    51    52   ar
    48    52    53   ar
    49    53    54   ar
    50    21    22   ar
    51    22    23   ar
    52    23    19   ar
    53    14    10    1
    54    47    42   ar
    55    40    36   ar
    56    54    49   ar
    57     4     5    1
    58    30    33    1
@<TRIPOS>MOLECULE
*****
 54 58 0 0 0
SMALL
GASTEIGER

@<TRIPOS>ATOM
      1 C          64.7884   90.3765   13.7982 C.3     1  UNL1        0.0760
      2 C          63.1484   88.6696   12.7274 C.2     1  UNL1        0.2406
      3 O          61.9860   89.4372   13.2839 O.2     1  UNL1       -0.2733
      4 N          64.5496   89.1393   12.9845 N.am    1  UNL1       -0.3043
      5 H          65.3125   88.6355   12.6192 H       1  UNL1        0.1494
      6 N          63.6967   84.1383   14.0703 N.am    1  UNL1       -0.2566
      7 C          64.1555   83.7148   15.4341 C.3     1  UNL1        0.1168
      8 C          63.5556   85.5959   13.7455 C.2     1  UNL1        0.3079
      9 O          63.8734   86.6300   14.7846 O.2     1  UNL1       -0.2523
     10 N          63.0968   86.0194   12.3817 N.am    1  UNL1       -0.2558
     11 C          62.7445   85.1046   11.2463 C.3     1  UNL1        0.1113
     12 C          62.3397   85.9519   10.0767 C.3     1  UNL1        0.0797
     13 C          62.4417   87.3905   10.4891 C.3     1  UNL1        0.0469
     14 C          62.9096   87.4323   11.9137 C.3     1  UNL1        0.1544
     15 N          61.9085   85.4490    8.7310 N.3     1  UNL1       -0.2699
     16 C          60.5809   85.8602    8.1667 C.3     1  UNL1        0.0897
     17 C          62.8049   84.5349    7.9494 C.3     1  UNL1        0.0897
     18 C          63.3789   83.1042   13.0312 C.3     1  UNL1        0.1413
     19 C          60.7014   80.4589   13.9787 C.ar    1  UNL1        0.0875
     20 N          61.0885   81.8677   13.6393 N.ar    1  UNL1       -0.2453
     21 C          62.5687   81.8964   13.3982 C.ar    1  UNL1        0.0858
     22 C          63.0964   80.5054   13.5886 C.ar    1  UNL1        0.0530
     23 S          61.9424   79.6168   13.9474 S.2     1  UNL1       -0.0705
     24 C          59.0815   78.5314   14.6194 C.3     1  UNL1        0.0069
     25 C          59.3164   79.9767   14.2941 C.3     1  UNL1        0.0465
     26 C          58.1665   80.9397   14.2841 C.3     1  UNL1        0.0069
     27 C          64.1083   91.6610   13.4273 C.3     1  UNL1        0.0216
     28 C          64.8644   92.7228   12.6852 C.3     1  UNL1        0.0217
     29 C          64.8844   92.7198   11.1853 C.3     1  UNL1        0.0792
     30 N          63.6019   92.5897   10.4184 N.am    1  UNL1       -0.2720
     31 C          63.1188   91.2361    9.9888 C.2     1  UNL1        0.4019
     32 O          63.9184   90.0126   10.3262 O.2     1  UNL1       -0.2264
     33 H          63.0771   93.3927   10.1969 H       1  UNL1        0.1527
     34 O          61.8363   91.1060    9.2219 O.3     1  UNL1       -0.4291
     35 C          61.0067   89.8632    9.3532 C.3     1  UNL1        0.2447
     36 C          60.1244   89.6735   10.5513 C.ar    1  UNL1        0.0714
     37 C          59.7066   88.3583   11.1392 C.ar    1  UNL1        0.1053
     38 N          58.8290   88.6376   12.3232 N.ar    1  UNL1       -0.2350
     39 C          58.7043   90.1254   12.4670 C.ar    1  UNL1        0.1343
     40 S          59.5049   90.7657   11.3719 S.2     1  UNL1       -0.0652
     41 C          66.1870   92.8468   10.4523 C.3     1  UNL1        0.0460
     42 C          66.6277   94.1830    9.9323 C.ar    1  UNL1       -0.0205
     43 C          67.2048   94.2976    8.5525 C.ar    1  UNL1       -0.0042
     44 C          67.6455   95.6337    8.0325 C.ar    1  UNL1       -0.0003
     45 C          67.5092   96.8553    8.8923 C.ar    1  UNL1       -0.0000
     46 C          66.9322   96.7407   10.2721 C.ar    1  UNL1       -0.0003
     47 C          66.4914   95.4045   10.7921 C.ar    1  UNL1       -0.0042
     48 C          65.7074   90.3293   14.9829 C.3     1  UNL1        0.0459
     49 C          66.7890   91.3575   15.1344 C.ar    1  UNL1       -0.0205
     50 C          67.9527   91.3669   14.1880 C.ar    1  UNL1       -0.0042
     51 C          69.0344   92.3950   14.3396 C.ar    1  UNL1       -0.0003
     52 C          68.9524   93.4137   15.4375 C.ar    1  UNL1       -0.0000
     53 C          67.7886   93.4043   16.3840 C.ar    1  UNL1       -0.0003
     54 C          66.7070   92.3762   16.2324 C.ar    1  UNL1       -0.0042
@<TRIPOS>BOND
     1    24    25    1
     2    25    26    1
     3    25    19    1
     4    19    20   ar
     5    20    21   ar
     6    21    18    1
     7    18     6    1
     8     6     7    1
     9     6     8   am
    10     8     9    2
    11     8    10   am
    12    10    11    1
    13    11    12    1
    14    12    15    1
    15    15    16    1
    16    15    17    1
    17    12    13    1
    18    13    14    1
    19    14     2    1
    20     2     3    2
    21     2     4   am
    22     4     1    1
    23     1    27    1
    24    27    28    1
    25    29    28    1
    26    29    41    1
    27    41    42    1
    28    42    43   ar
    29    43    44   ar
    30    44    45   ar
    31    45    46   ar
    32    46    47   ar
    33    29    30    1
    34    30    31   am
    35    31    32    2
    36    31    34    1
    37    34    35    1
    38    35    36    1
    39    36    37   ar
    40    37    38   ar
    41    38    39   ar
    42    39    40   ar
    43     1    48    1
    44    48    49    1
    45    49    50   ar
    46    50    51   ar
    47    51    52   ar
    48    52    53   ar
    49    53    54   ar
    50    21    22   ar
    51    22    23   ar
    52    23    19   ar
    53    14    10    1
    54    47    42   ar
    55    40    36   ar
    56    54    49   ar
    57     4     5    1
    58    30    33    1
