@<TRIPOS>MOLECULE
*****
 36 40 0 0 0
SMALL
GASTEIGER

@<TRIPOS>ATOM
      1 N          65.5833   91.0433   12.6948 N.am    1  UNL1       -0.2794
      2 C          64.3871   90.5144   13.4293 C.2     1  UNL1        0.2510
      3 O          63.5055   91.4517   14.2002 O.2     1  UNL1       -0.2698
      4 H          66.1619   90.4281   12.1889 H       1  UNL1        0.1552
      5 N          66.3263   92.3539   15.2891 N.pl3   1  UNL1       -0.3560
      6 C          66.2694   93.1648   14.0284 C.ar    1  UNL1        0.0552
      7 C          66.5841   94.6310   14.0648 C.ar    1  UNL1        0.0154
      8 C          66.5272   95.4418   12.8042 C.ar    1  UNL1        0.0018
      9 C          66.1556   94.7865   11.5071 C.ar    1  UNL1        0.0073
     10 C          65.8410   93.3203   11.4706 C.ar    1  UNL1        0.0164
     11 C          65.8979   92.5095   12.7312 C.ar    1  UNL1        0.0636
     12 H          66.5702   92.7840   16.1404 H       1  UNL1        0.1424
     13 H          66.1198   91.3916   15.2651 H       1  UNL1        0.1424
     14 C          66.0987   95.5974   10.2464 C.ar    1  UNL1        0.0295
     15 C          64.8537   96.0913    9.5711 C.ar    1  UNL1        0.0070
     16 C          65.2624   96.8559    8.3471 C.ar    1  UNL1        0.0075
     17 C          66.7601   96.8345    8.2658 C.ar    1  UNL1        0.0354
     18 S          67.2769   96.0568    9.4396 S.2     1  UNL1       -0.0864
     19 C          64.0725   89.0483   13.3928 C.ar    1  UNL1        0.0729
     20 C          64.5601   88.1490   14.4900 C.ar    1  UNL1        0.0090
     21 C          64.2455   86.6829   14.4536 C.ar    1  UNL1        0.0345
     22 C          63.4434   86.1159   13.3199 C.ar    1  UNL1        0.1317
     23 N          62.9558   87.0150   12.2228 N.ar    1  UNL1       -0.2290
     24 C          63.2704   88.4812   12.2592 C.ar    1  UNL1        0.1048
     25 N          63.1288   84.6496   13.2835 N.pl3   1  UNL1       -0.2930
     26 C          63.5810   83.8142   12.1227 C.3     1  UNL1        0.0958
     27 C          63.2664   82.3480   12.0864 C.3     1  UNL1        0.0634
     28 C          62.4997   81.7173   13.2108 C.3     1  UNL1        0.1588
     29 C          62.0475   82.5528   14.3716 C.3     1  UNL1        0.0634
     30 C          62.3621   84.0189   14.4080 C.3     1  UNL1        0.0958
     31 C          61.7454   80.9511   14.2568 C.3     1  UNL1        0.1327
     32 N          61.6637   79.5201   13.8145 N.am    1  UNL1       -0.2671
     33 C          62.3675   79.4019   12.4951 C.2     1  UNL1        0.4016
     34 O          62.5266   78.1463   11.6902 O.2     1  UNL1       -0.2264
     35 O          62.8841   80.7598   12.1220 O.3     1  UNL1       -0.4401
     36 H          61.2252   78.7872   14.3042 H       1  UNL1        0.1529
@<TRIPOS>BOND
     1     5     6    1
     2     6     7   ar
     3     7     8   ar
     4     8     9   ar
     5     9    14    1
     6    14    15   ar
     7    15    16   ar
     8    16    17   ar
     9    17    18   ar
    10     9    10   ar
    11    10    11   ar
    12    11     1    1
    13     1     2   am
    14     2     3    2
    15     2    19    1
    16    19    20   ar
    17    20    21   ar
    18    21    22   ar
    19    22    25    1
    20    25    26    1
    21    26    27    1
    22    27    28    1
    23    28    29    1
    24    29    30    1
    25    28    31    1
    26    31    32    1
    27    32    33   am
    28    33    34    2
    29    33    35    1
    30    22    23   ar
    31    23    24   ar
    32    11     6   ar
    33    24    19   ar
    34    18    14   ar
    35    30    25    1
    36    35    28    1
    37     5    12    1
    38     5    13    1
    39     1     4    1
    40    32    36    1
@<TRIPOS>MOLECULE
*****
 36 40 0 0 0
SMALL
GASTEIGER

@<TRIPOS>ATOM
      1 N          72.2328   73.8791   13.0159 N.am    1  UNL1       -0.2794
      2 C          72.2735   75.3386   13.3595 C.2     1  UNL1        0.2510
      3 O          72.2764   75.7713   14.7958 O.2     1  UNL1       -0.2698
      4 H          72.2310   73.5952   12.0733 H       1  UNL1        0.1552
      5 N          72.0103   70.9670   12.3303 N.pl3   1  UNL1       -0.3560
      6 C          72.0837   71.3961   13.7658 C.ar    1  UNL1        0.0552
      7 C          72.0458   70.3691   14.8584 C.ar    1  UNL1        0.0154
      8 C          72.1192   70.7982   16.2938 C.ar    1  UNL1        0.0018
      9 C          72.2304   72.2542   16.6366 C.ar    1  UNL1        0.0073
     10 C          72.2683   73.2812   15.5440 C.ar    1  UNL1        0.0164
     11 C          72.1949   72.8521   14.1086 C.ar    1  UNL1        0.0636
     12 H          71.9373   70.0114   12.1053 H       1  UNL1        0.1424
     13 H          72.0351   71.6411   11.6132 H       1  UNL1        0.1424
     14 C          72.3038   72.6833   18.0722 C.ar    1  UNL1        0.0295
     15 C          71.1663   72.6892   19.0499 C.ar    1  UNL1        0.0070
     16 C          71.6871   73.1913   20.3639 C.ar    1  UNL1        0.0075
     17 C          73.1466   73.4958   20.1983 C.ar    1  UNL1        0.0354
     18 S          73.5277   73.1818   18.7819 S.2     1  UNL1       -0.0864
     19 C          72.3114   76.3655   12.2668 C.ar    1  UNL1        0.0729
     20 C          73.5943   76.6396   11.5393 C.ar    1  UNL1        0.0090
     21 C          73.6321   77.6666   10.4466 C.ar    1  UNL1        0.0345
     22 C          72.3872   78.4194   10.0814 C.ar    1  UNL1        0.1317
     23 N          71.1044   78.1453   10.8089 N.ar    1  UNL1       -0.2290
     24 C          71.0665   77.1184   11.9016 C.ar    1  UNL1        0.1048
     25 N          72.4251   79.4464    8.9887 N.pl3   1  UNL1       -0.2930
     26 C          73.2643   79.2117    7.7678 C.3     1  UNL1        0.0958
     27 C          73.3022   80.2387    6.6751 C.3     1  UNL1        0.0634
     28 C          72.5009   81.5002    6.8034 C.3     1  UNL1        0.1588
     29 C          71.6617   81.7348    8.0243 C.3     1  UNL1        0.0634
     30 C          71.6238   80.7079    9.1169 C.3     1  UNL1        0.0958
     31 C          71.7569   82.8027    6.7913 C.3     1  UNL1        0.1327
     32 N          72.0857   83.5125    5.5113 N.am    1  UNL1       -0.2671
     33 C          73.0328   82.6486    4.7323 C.2     1  UNL1        0.4016
     34 O          73.6202   82.9716    3.3905 O.2     1  UNL1       -0.2264
     35 O          73.2895   81.4050    5.5308 O.3     1  UNL1       -0.4401
     36 H          71.7404   84.3910    5.2316 H       1  UNL1        0.1529
@<TRIPOS>BOND
     1     5     6    1
     2     6     7   ar
     3     7     8   ar
     4     8     9   ar
     5     9    14    1
     6    14    15   ar
     7    15    16   ar
     8    16    17   ar
     9    17    18   ar
    10     9    10   ar
    11    10    11   ar
    12    11     1    1
    13     1     2   am
    14     2     3    2
    15     2    19    1
    16    19    20   ar
    17    20    21   ar
    18    21    22   ar
    19    22    25    1
    20    25    26    1
    21    26    27    1
    22    27    28    1
    23    28    29    1
    24    29    30    1
    25    28    31    1
    26    31    32    1
    27    32    33   am
    28    33    34    2
    29    33    35    1
    30    22    23   ar
    31    23    24   ar
    32    11     6   ar
    33    24    19   ar
    34    18    14   ar
    35    30    25    1
    36    35    28    1
    37     5    12    1
    38     5    13    1
    39     1     4    1
    40    32    36    1
