@<TRIPOS>MOLECULE
*****
 37 40 0 0 0
SMALL
GASTEIGER

@<TRIPOS>ATOM
      1 N          63.0145   90.8192   11.7017 N.am    1  UNL1       -0.2438
      2 C          63.5491   91.4328   10.4417 C.3     1  UNL1        0.1009
      3 C          64.7432   92.3390   10.4968 C.3     1  UNL1        0.0662
      4 C          65.4026   92.6316   11.8119 C.3     1  UNL1        0.1600
      5 O          64.8679   92.0179   13.0720 O.3     1  UNL1       -0.4374
      6 C          63.6739   91.1117   13.0169 C.2     1  UNL1        0.4051
      7 O          63.1393   90.4981   14.2768 O.2     1  UNL1       -0.2262
      8 C          66.2710   93.4449   10.8985 C.ar    1  UNL1        0.0138
      9 C          67.1905   92.7601    9.9312 C.ar    1  UNL1       -0.0010
     10 C          68.0589   93.5735    9.0178 C.ar    1  UNL1       -0.0002
     11 C          68.0078   95.0716    9.0717 C.ar    1  UNL1       -0.0000
     12 C          67.0883   95.7565   10.0389 C.ar    1  UNL1       -0.0002
     13 C          66.2199   94.9431   10.9523 C.ar    1  UNL1       -0.0010
     14 C          60.4385   90.4948   11.6062 C.3     1  UNL1        0.0265
     15 C          61.8205   89.9129   11.6465 C.3     1  UNL1        0.1011
     16 C          62.0084   88.4248   11.6317 C.ar    1  UNL1       -0.0042
     17 C          63.0994   87.7984   12.4487 C.ar    1  UNL1       -0.0027
     18 C          63.2872   86.3104   12.4338 C.ar    1  UNL1       -0.0003
     19 C          62.3842   85.4486   11.6020 C.ar    1  UNL1        0.0002
     20 C          61.2932   86.0750   10.7851 C.ar    1  UNL1       -0.0003
     21 C          61.1053   87.5631   10.7999 C.ar    1  UNL1       -0.0027
     22 C          62.5721   83.9605   11.5872 C.ar    1  UNL1        0.0062
     23 C          63.3112   83.3091   10.4561 C.ar    1  UNL1        0.0189
     24 C          63.4991   81.8209   10.4413 C.ar    1  UNL1        0.0784
     25 N          62.9479   80.9842   11.5576 N.ar    1  UNL1       -0.2912
     26 C          62.2088   81.6357   12.6888 C.ar    1  UNL1        0.2611
     27 O          61.6577   80.7990   13.8051 O.2     1  UNL1       -0.2670
     28 C          62.0209   83.1238   12.7036 C.ar    1  UNL1        0.0608
     29 C          63.1358   79.4962   11.5429 C.3     1  UNL1        0.1471
     30 C          62.7581   78.7046   10.3261 C.3     1  UNL1        0.2177
     31 F          62.3769   79.4122    9.0595 F       1  UNL1       -0.2322
     32 C          66.3636   93.2067   12.8099 C.3     1  UNL1        0.0714
     33 C          66.9499   92.3310   13.8772 C.3     1  UNL1        0.0922
     34 C          67.7548   91.6055   12.8400 C.3     1  UNL1        0.0294
     35 C          66.1450   93.0564   14.9145 C.3     1  UNL1        0.0294
     36 O          67.5363   91.4552   14.9446 O.3     1  UNL1       -0.3866
     37 H          68.1534   90.8242   14.5422 H       1  UNL1        0.2102
@<TRIPOS>BOND
     1    15    14    1
     2    15    16    1
     3    16    17   ar
     4    17    18   ar
     5    18    19   ar
     6    19    22    1
     7    22    23   ar
     8    23    24   ar
     9    24    25   ar
    10    25    29    1
    11    29    30    1
    12    30    31    1
    13    25    26   ar
    14    26    27    2
    15    26    28   ar
    16    19    20   ar
    17    20    21   ar
    18    15     1    1
    19     1     2    1
    20     2     3    1
    21     3     4    1
    22     4    32    1
    23    32    33    1
    24    33    34    1
    25    33    35    1
    26    33    36    1
    27     4     8    1
    28     8     9   ar
    29     9    10   ar
    30    10    11   ar
    31    11    12   ar
    32    12    13   ar
    33     4     5    1
    34     5     6    1
    35     6     7    2
    36    21    16   ar
    37     6     1   am
    38    28    22   ar
    39    13     8   ar
    40    36    37    1
@<TRIPOS>MOLECULE
*****
 37 40 0 0 0
SMALL
GASTEIGER

@<TRIPOS>ATOM
      1 N          63.4660   90.5435   11.9875 N.am    1  UNL1       -0.2438
      2 C          64.1382   90.3561   13.3152 C.3     1  UNL1        0.1009
      3 C          65.3310   91.1907   13.6765 C.3     1  UNL1        0.0662
      4 C          65.8517   92.2128   12.7100 C.3     1  UNL1        0.1600
      5 O          65.1796   92.4003   11.3821 O.3     1  UNL1       -0.4374
      6 C          63.9867   91.5657   11.0209 C.2     1  UNL1        0.4051
      7 O          63.3145   91.7531    9.6931 O.2     1  UNL1       -0.2262
      8 C          66.8218   92.4032   13.8382 C.ar    1  UNL1        0.0138
      9 C          66.3336   92.8772   15.1750 C.ar    1  UNL1       -0.0010
     10 C          67.3036   93.0677   16.3032 C.ar    1  UNL1       -0.0002
     11 C          68.7617   92.7842   16.0945 C.ar    1  UNL1       -0.0000
     12 C          69.2499   92.3102   14.7577 C.ar    1  UNL1       -0.0002
     13 C          68.2798   92.1198   13.6295 C.ar    1  UNL1       -0.0010
     14 C          60.9731   90.3704   11.2767 C.3     1  UNL1        0.0265
     15 C          62.2732   89.7089   11.6262 C.3     1  UNL1        0.1011
     16 C          62.3805   88.2127   11.6144 C.ar    1  UNL1       -0.0042
     17 C          63.1647   87.5086   12.6817 C.ar    1  UNL1       -0.0027
     18 C          63.2719   86.0126   12.6699 C.ar    1  UNL1       -0.0003
     19 C          62.5950   85.2206   11.5908 C.ar    1  UNL1        0.0002
     20 C          61.8108   85.9247   10.5235 C.ar    1  UNL1       -0.0003
     21 C          61.7035   87.4208   10.5353 C.ar    1  UNL1       -0.0027
     22 C          62.7023   83.7244   11.5790 C.ar    1  UNL1        0.0062
     23 C          63.3647   83.0290   10.4268 C.ar    1  UNL1        0.0189
     24 C          63.4719   81.5329   10.4150 C.ar    1  UNL1        0.0784
     25 N          62.9168   80.7322   11.5555 N.ar    1  UNL1       -0.2912
     26 C          62.2544   81.4276   12.7078 C.ar    1  UNL1        0.2611
     27 O          61.6993   80.6269   13.8483 O.2     1  UNL1       -0.2670
     28 C          62.1472   82.9237   12.7195 C.ar    1  UNL1        0.0608
     29 C          63.0241   79.2361   11.5438 C.3     1  UNL1        0.1471
     30 C          62.7164   78.4720   10.2903 C.3     1  UNL1        0.2177
     31 F          62.3410   79.2063    9.0373 F       1  UNL1       -0.2322
     32 C          66.7093   93.3011   12.1353 C.3     1  UNL1        0.0714
     33 C          66.5834   93.6690   10.6866 C.3     1  UNL1        0.0922
     34 C          65.7785   94.8774   11.0635 C.3     1  UNL1        0.0294
     35 C          67.3882   92.4607   10.3097 C.3     1  UNL1        0.0294
     36 O          66.4574   94.0371    9.2379 O.3     1  UNL1       -0.3866
     37 H          65.9396   94.8531    9.1555 H       1  UNL1        0.2102
@<TRIPOS>BOND
     1    15    14    1
     2    15    16    1
     3    16    17   ar
     4    17    18   ar
     5    18    19   ar
     6    19    22    1
     7    22    23   ar
     8    23    24   ar
     9    24    25   ar
    10    25    29    1
    11    29    30    1
    12    30    31    1
    13    25    26   ar
    14    26    27    2
    15    26    28   ar
    16    19    20   ar
    17    20    21   ar
    18    15     1    1
    19     1     2    1
    20     2     3    1
    21     3     4    1
    22     4    32    1
    23    32    33    1
    24    33    34    1
    25    33    35    1
    26    33    36    1
    27     4     8    1
    28     8     9   ar
    29     9    10   ar
    30    10    11   ar
    31    11    12   ar
    32    12    13   ar
    33     4     5    1
    34     5     6    1
    35     6     7    2
    36    21    16   ar
    37     6     1   am
    38    28    22   ar
    39    13     8   ar
    40    36    37    1
@<TRIPOS>MOLECULE
*****
 37 40 0 0 0
SMALL
GASTEIGER

@<TRIPOS>ATOM
      1 N          63.0883   91.0686   11.4424 N.am    1  UNL1       -0.2438
      2 C          63.5928   91.7906   10.2283 C.3     1  UNL1        0.1009
      3 C          64.7596   92.7263   10.3430 C.3     1  UNL1        0.0662
      4 C          65.4219   92.9399   11.6718 C.3     1  UNL1        0.1600
      5 O          64.9173   92.2179   12.8860 O.3     1  UNL1       -0.4374
      6 C          63.7506   91.2822   12.7713 C.2     1  UNL1        0.4051
      7 O          63.2460   90.5602   13.9854 O.2     1  UNL1       -0.2262
      8 C          66.2571   93.8454   10.8160 C.ar    1  UNL1        0.0138
      9 C          67.1130   93.2691    9.7272 C.ar    1  UNL1       -0.0010
     10 C          67.9483   94.1746    8.8713 C.ar    1  UNL1       -0.0002
     11 C          67.9277   95.6562    9.1043 C.ar    1  UNL1       -0.0000
     12 C          67.0718   96.2325   10.1931 C.ar    1  UNL1       -0.0002
     13 C          66.2365   95.3270   11.0489 C.ar    1  UNL1       -0.0010
     14 C          60.5722   90.6608   10.9398 C.3     1  UNL1        0.0265
     15 C          61.9215   90.1329   11.3277 C.3     1  UNL1        0.1011
     16 C          62.1042   88.6693   11.6010 C.ar    1  UNL1       -0.0042
     17 C          63.2061   88.2074   12.5078 C.ar    1  UNL1       -0.0027
     18 C          63.3887   86.7439   12.7810 C.ar    1  UNL1       -0.0003
     19 C          62.4694   85.7422   12.1473 C.ar    1  UNL1        0.0002
     20 C          61.3675   86.2041   11.2404 C.ar    1  UNL1       -0.0003
     21 C          61.1849   87.6676   10.9673 C.ar    1  UNL1       -0.0027
     22 C          62.6520   84.2786   12.4206 C.ar    1  UNL1        0.0062
     23 C          62.6781   83.7771   13.8339 C.ar    1  UNL1        0.0189
     24 C          62.8608   82.3135   14.1072 C.ar    1  UNL1        0.0784
     25 N          63.0173   81.3515   12.9669 N.ar    1  UNL1       -0.2912
     26 C          62.9912   81.8531   11.5535 C.ar    1  UNL1        0.2611
     27 O          63.1478   80.8912   10.4133 O.2     1  UNL1       -0.2670
     28 C          62.8086   83.3167   11.2803 C.ar    1  UNL1        0.0608
     29 C          63.2000   79.8880   13.2401 C.3     1  UNL1        0.1471
     30 C          62.0519   79.0724   13.7565 C.3     1  UNL1        0.2177
     31 F          60.6796   79.6734   13.8333 F       1  UNL1       -0.2322
     32 C          66.3742   93.4680   12.7034 C.3     1  UNL1        0.0714
     33 C          67.0444   92.5250   13.6581 C.3     1  UNL1        0.0922
     34 C          67.6749   91.8042   12.5035 C.3     1  UNL1        0.0294
     35 C          66.4138   93.2456   14.8126 C.3     1  UNL1        0.0294
     36 O          67.7145   91.5818   14.6127 O.3     1  UNL1       -0.3866
     37 H          68.2434   90.9392   14.1146 H       1  UNL1        0.2102
@<TRIPOS>BOND
     1    15    14    1
     2    15    16    1
     3    16    17   ar
     4    17    18   ar
     5    18    19   ar
     6    19    22    1
     7    22    23   ar
     8    23    24   ar
     9    24    25   ar
    10    25    29    1
    11    29    30    1
    12    30    31    1
    13    25    26   ar
    14    26    27    2
    15    26    28   ar
    16    19    20   ar
    17    20    21   ar
    18    15     1    1
    19     1     2    1
    20     2     3    1
    21     3     4    1
    22     4    32    1
    23    32    33    1
    24    33    34    1
    25    33    35    1
    26    33    36    1
    27     4     8    1
    28     8     9   ar
    29     9    10   ar
    30    10    11   ar
    31    11    12   ar
    32    12    13   ar
    33     4     5    1
    34     5     6    1
    35     6     7    2
    36    21    16   ar
    37     6     1   am
    38    28    22   ar
    39    13     8   ar
    40    36    37    1
