@<TRIPOS>MOLECULE
*****
 41 44 0 0 0
SMALL
GASTEIGER

@<TRIPOS>ATOM
      1 C          61.4761   86.7509    8.7662 C.ar    1  UNL1        0.0001
      2 C          62.5279   85.6972    8.5830 C.ar    1  UNL1       -0.0003
      3 C          62.9170   84.8178    9.7343 C.ar    1  UNL1       -0.0042
      4 C          62.2544   84.9921   11.0686 C.ar    1  UNL1       -0.0206
      5 C          61.2027   86.0458   11.2518 C.ar    1  UNL1       -0.0042
      6 C          60.8135   86.9252   10.1006 C.ar    1  UNL1       -0.0003
      7 C          62.6436   84.1128   12.2198 C.3     1  UNL1        0.0483
      8 C          62.3442   82.6488   12.3516 C.3     1  UNL1        0.0770
      9 N          62.9160   82.1742   13.6545 N.3     1  UNL1       -0.2698
     10 C          63.5688   83.3447   14.3281 C.3     1  UNL1        0.0816
     11 C          63.4004   84.5429   13.4414 C.3     1  UNL1        0.0981
     12 C          63.9010   85.9279   13.7262 C.2     1  UNL1        0.2274
     13 O          64.9933   86.1384   14.7324 O.2     1  UNL1       -0.2747
     14 N          63.3093   87.1024   13.0048 N.am    1  UNL1       -0.2839
     15 H          62.5923   86.9642   12.3444 H       1  UNL1        0.1549
     16 C          63.8098   88.4874   13.2897 C.ar    1  UNL1        0.0504
     17 C          63.5710   89.5894   12.3005 C.ar    1  UNL1        0.0155
     18 C          64.0716   90.9744   12.5854 C.ar    1  UNL1        0.0127
     19 C          64.8110   91.2575   13.8593 C.ar    1  UNL1        0.0578
     20 CL         65.3116   92.6425   14.1442 Cl      1  UNL1       -0.0822
     21 C          65.0499   90.1554   14.8485 C.ar    1  UNL1        0.0127
     22 C          64.5493   88.7704   14.5636 C.ar    1  UNL1        0.0155
     23 C          62.8471   80.7747   14.1899 C.3     1  UNL1        0.1043
     24 C          61.5779   79.9852   14.0641 C.3     1  UNL1        0.1544
     25 O          60.2563   80.6420   14.3321 O.3     1  UNL1       -0.3805
     26 H          60.2018   80.8886   15.2686 H       1  UNL1        0.2105
     27 C          60.0845   88.7280    7.8152 C.2     1  UNL1        0.0580
     28 C          61.0870   87.6303    7.6150 C.2     1  UNL1        0.0047
     29 N          60.7459   90.3759    5.9187 N.am    1  UNL1       -0.2794
     30 C          59.6954   89.6074    6.6640 C.2     1  UNL1        0.2497
     31 O          58.2555   89.7183    6.2582 O.2     1  UNL1       -0.2698
     32 H          61.6909   90.3032    6.1850 H       1  UNL1        0.1552
     33 N          62.7767   91.1047    3.8342 N.pl3   1  UNL1       -0.3560
     34 C          61.3721   91.6197    3.7253 C.ar    1  UNL1        0.0552
     35 C          60.9829   92.4991    2.5742 C.ar    1  UNL1        0.0153
     36 C          59.5783   93.0142    2.4653 C.ar    1  UNL1        0.0013
     37 C          58.5629   92.6498    3.5075 C.ar    1  UNL1        0.0014
     38 C          58.9522   91.7704    4.6586 C.ar    1  UNL1        0.0159
     39 C          60.3567   91.2554    4.7675 C.ar    1  UNL1        0.0636
     40 H          63.4431   91.3438    3.1501 H       1  UNL1        0.1424
     41 H          63.0321   90.5275    4.5897 H       1  UNL1        0.1424
@<TRIPOS>BOND
     1    33    34    1
     2    34    35   ar
     3    35    36   ar
     4    36    37   ar
     5    37    38   ar
     6    38    39   ar
     7    39    29    1
     8    29    30   am
     9    30    31    2
    10    30    27    1
    11    27    28    2
    12    28     1    1
    13     1     2   ar
    14     2     3   ar
    15     3     4   ar
    16     7     4    1
    17     7     8    1
    18     8     9    1
    19     9    23    1
    20    23    24    1
    21    24    25    1
    22     9    10    1
    23    10    11    1
    24    11    12    1
    25    12    13    2
    26    12    14   am
    27    14    16    1
    28    16    17   ar
    29    17    18   ar
    30    18    19   ar
    31    19    20    1
    32    19    21   ar
    33    21    22   ar
    34     4     5   ar
    35     5     6   ar
    36    39    34   ar
    37     6     1   ar
    38    11     7    1
    39    22    16   ar
    40    33    40    1
    41    33    41    1
    42    29    32    1
    43    25    26    1
    44    14    15    1
@<TRIPOS>MOLECULE
*****
 41 44 0 0 0
SMALL
GASTEIGER

@<TRIPOS>ATOM
      1 C          60.5214   92.2424    3.4974 C.ar    1  UNL1        0.0001
      2 C          59.5740   93.0309    2.6426 C.ar    1  UNL1       -0.0003
      3 C          59.9974   93.4869    1.2777 C.ar    1  UNL1       -0.0042
      4 C          61.3682   93.1544    0.7677 C.ar    1  UNL1       -0.0206
      5 C          62.3157   92.3658    1.6224 C.ar    1  UNL1       -0.0042
      6 C          61.8923   91.9098    2.9872 C.ar    1  UNL1       -0.0003
      7 C          61.7916   93.6104   -0.5971 C.3     1  UNL1        0.0483
      8 C          63.2028   93.7025   -1.0976 C.3     1  UNL1        0.0770
      9 N          63.1616   94.2034   -2.5109 N.3     1  UNL1       -0.2698
     10 C          61.7250   94.4208   -2.8840 C.3     1  UNL1        0.0816
     11 C          60.8784   94.0543   -1.7012 C.3     1  UNL1        0.0981
     12 C          59.3813   94.1201   -1.6342 C.2     1  UNL1        0.2274
     13 O          58.5846   92.8684   -1.4144 O.2     1  UNL1       -0.2747
     14 N          58.6810   95.4378   -1.7870 N.am    1  UNL1       -0.2839
     15 H          59.2039   96.2594   -1.9312 H       1  UNL1        0.1549
     16 C          57.1840   95.5036   -1.7200 C.ar    1  UNL1        0.0504
     17 C          56.3585   94.3758   -2.2646 C.ar    1  UNL1        0.0155
     18 C          54.8614   94.4417   -2.1976 C.ar    1  UNL1        0.0127
     19 C          54.1898   95.6353   -1.5861 C.ar    1  UNL1        0.0578
     20 CL         52.6927   95.7012   -1.5191 Cl      1  UNL1       -0.0822
     21 C          55.0153   96.7632   -1.0415 C.ar    1  UNL1        0.0127
     22 C          56.5123   96.6973   -1.1085 C.ar    1  UNL1        0.0155
     23 C          64.3484   94.4445   -3.3958 C.3     1  UNL1        0.1043
     24 C          64.7501   93.4141   -4.4092 C.3     1  UNL1        0.1544
     25 O          64.8622   91.9727   -4.0095 O.3     1  UNL1       -0.3805
     26 H          65.5890   91.8686   -3.3755 H       1  UNL1        0.2105
     27 C          60.2031   90.3373    5.2349 C.2     1  UNL1        0.0580
     28 C          60.0980   91.7864    4.8622 C.2     1  UNL1        0.0047
     29 N          60.7703   89.8653    7.7260 N.am    1  UNL1       -0.2794
     30 C          59.7797   89.8812    6.5997 C.2     1  UNL1        0.2497
     31 O          58.3657   89.4412    6.8383 O.2     1  UNL1       -0.2698
     32 H          61.6983   90.1541    7.5694 H       1  UNL1        0.1552
     33 N          60.7182   86.9380    8.3803 N.pl3   1  UNL1       -0.3560
     34 C          60.3208   87.9456    9.4180 C.ar    1  UNL1        0.0552
     35 C          59.8974   87.4896   10.7828 C.ar    1  UNL1        0.0153
     36 C          59.5001   88.4973   11.8205 C.ar    1  UNL1        0.0013
     37 C          59.5261   89.9609   11.4934 C.ar    1  UNL1        0.0014
     38 C          59.9495   90.4169   10.1285 C.ar    1  UNL1        0.0159
     39 C          60.3469   89.4092    9.0909 C.ar    1  UNL1        0.0636
     40 H          60.7010   85.9773    8.5950 H       1  UNL1        0.1424
     41 H          60.9960   87.2373    7.4845 H       1  UNL1        0.1424
@<TRIPOS>BOND
     1    33    34    1
     2    34    35   ar
     3    35    36   ar
     4    36    37   ar
     5    37    38   ar
     6    38    39   ar
     7    39    29    1
     8    29    30   am
     9    30    31    2
    10    30    27    1
    11    27    28    2
    12    28     1    1
    13     1     2   ar
    14     2     3   ar
    15     3     4   ar
    16     7     4    1
    17     7     8    1
    18     8     9    1
    19     9    23    1
    20    23    24    1
    21    24    25    1
    22     9    10    1
    23    10    11    1
    24    11    12    1
    25    12    13    2
    26    12    14   am
    27    14    16    1
    28    16    17   ar
    29    17    18   ar
    30    18    19   ar
    31    19    20    1
    32    19    21   ar
    33    21    22   ar
    34     4     5   ar
    35     5     6   ar
    36    39    34   ar
    37     6     1   ar
    38    11     7    1
    39    22    16   ar
    40    33    40    1
    41    33    41    1
    42    29    32    1
    43    25    26    1
    44    14    15    1
@<TRIPOS>MOLECULE
*****
 41 44 0 0 0
SMALL
GASTEIGER

@<TRIPOS>ATOM
      1 C          61.8405   92.3085    2.8901 C.ar    1  UNL1        0.0001
      2 C          60.8777   93.2684    2.2563 C.ar    1  UNL1       -0.0003
      3 C          61.3390   94.1752    1.1540 C.ar    1  UNL1       -0.0042
      4 C          62.7630   94.1222    0.6857 C.ar    1  UNL1       -0.0206
      5 C          63.7258   93.1623    1.3195 C.ar    1  UNL1       -0.0042
      6 C          63.2645   92.2555    2.4217 C.ar    1  UNL1       -0.0003
      7 C          63.2242   95.0290   -0.4166 C.3     1  UNL1        0.0483
      8 C          64.6495   95.2935   -0.8024 C.3     1  UNL1        0.0770
      9 N          64.6474   96.2585   -1.9508 N.3     1  UNL1       -0.2698
     10 C          63.2208   96.5904   -2.2748 C.3     1  UNL1        0.0816
     11 C          62.3413   95.8305   -1.3265 C.3     1  UNL1        0.0981
     12 C          60.8421   95.8659   -1.2940 C.2     1  UNL1        0.2274
     13 O          60.1341   96.8533   -0.4143 O.2     1  UNL1       -0.2747
     14 N          60.0508   94.9139   -2.1412 N.am    1  UNL1       -0.2839
     15 H          60.5155   94.2659   -2.7185 H       1  UNL1        0.1549
     16 C          58.5516   94.9493   -2.1086 C.ar    1  UNL1        0.0504
     17 C          57.8118   96.0462   -2.8154 C.ar    1  UNL1        0.0155
     18 C          56.3126   96.0816   -2.7829 C.ar    1  UNL1        0.0127
     19 C          55.5531   95.0202   -2.0436 C.ar    1  UNL1        0.0578
     20 CL         54.0539   95.0556   -2.0111 Cl      1  UNL1       -0.0822
     21 C          56.2929   93.9233   -1.3368 C.ar    1  UNL1        0.0127
     22 C          57.7921   93.8879   -1.3694 C.ar    1  UNL1        0.0155
     23 C          65.8590   96.7970   -2.6521 C.3     1  UNL1        0.1043
     24 C          65.8947   96.8541   -4.1506 C.3     1  UNL1        0.1544
     25 O          65.4600   95.6665   -4.9571 O.3     1  UNL1       -0.3805
     26 H          66.0753   94.9316   -4.8080 H       1  UNL1        0.2105
     27 C          59.9995   91.5538    4.5607 C.2     1  UNL1        0.0580
     28 C          61.3792   91.4017    3.9924 C.2     1  UNL1        0.0047
     29 N          60.5426   89.9003    6.4897 N.am    1  UNL1       -0.2794
     30 C          59.5382   90.6470    5.6629 C.2     1  UNL1        0.2497
     31 O          58.0724   90.4868    5.9384 O.2     1  UNL1       -0.2698
     32 H          61.5046   90.0055    6.3089 H       1  UNL1        0.1552
     33 N          61.3404   90.4616    9.3267 N.pl3   1  UNL1       -0.3560
     34 C          60.4802   89.2742    9.0105 C.ar    1  UNL1        0.0552
     35 C          60.0189   88.3674   10.1126 C.ar    1  UNL1        0.0153
     36 C          59.1587   87.1799    9.7964 C.ar    1  UNL1        0.0013
     37 C          58.7598   86.8993    8.3779 C.ar    1  UNL1        0.0014
     38 C          59.2211   87.8061    7.2757 C.ar    1  UNL1        0.0159
     39 C          60.0813   88.9935    7.5920 C.ar    1  UNL1        0.0636
     40 H          61.6022   90.6458   10.2577 H       1  UNL1        0.1424
     41 H          61.6432   91.0568    8.6033 H       1  UNL1        0.1424
@<TRIPOS>BOND
     1    33    34    1
     2    34    35   ar
     3    35    36   ar
     4    36    37   ar
     5    37    38   ar
     6    38    39   ar
     7    39    29    1
     8    29    30   am
     9    30    31    2
    10    30    27    1
    11    27    28    2
    12    28     1    1
    13     1     2   ar
    14     2     3   ar
    15     3     4   ar
    16     7     4    1
    17     7     8    1
    18     8     9    1
    19     9    23    1
    20    23    24    1
    21    24    25    1
    22     9    10    1
    23    10    11    1
    24    11    12    1
    25    12    13    2
    26    12    14   am
    27    14    16    1
    28    16    17   ar
    29    17    18   ar
    30    18    19   ar
    31    19    20    1
    32    19    21   ar
    33    21    22   ar
    34     4     5   ar
    35     5     6   ar
    36    39    34   ar
    37     6     1   ar
    38    11     7    1
    39    22    16   ar
    40    33    40    1
    41    33    41    1
    42    29    32    1
    43    25    26    1
    44    14    15    1
@<TRIPOS>MOLECULE
*****
 41 44 0 0 0
SMALL
GASTEIGER

@<TRIPOS>ATOM
      1 C          59.7951   89.3563    7.1803 C.ar    1  UNL1        0.0001
      2 C          60.1214   90.1266    8.4253 C.ar    1  UNL1       -0.0003
      3 C          60.7274   89.4246    9.6044 C.ar    1  UNL1       -0.0042
      4 C          61.0069   87.9523    9.5384 C.ar    1  UNL1       -0.0206
      5 C          60.6806   87.1821    8.2933 C.ar    1  UNL1       -0.0042
      6 C          60.0747   87.8840    7.1143 C.ar    1  UNL1       -0.0003
      7 C          61.6128   87.2504   10.7174 C.3     1  UNL1        0.0483
      8 C          61.2627   85.8738   11.1995 C.3     1  UNL1        0.0770
      9 N          62.1087   85.5744   12.4014 N.3     1  UNL1       -0.2698
     10 C          62.9817   86.7660   12.6622 C.3     1  UNL1        0.0816
     11 C          62.6752   87.8018   11.6214 C.3     1  UNL1        0.0981
     12 C          63.3183   89.1520   11.5051 C.2     1  UNL1        0.2274
     13 O          63.3021   89.8800   10.1937 O.2     1  UNL1       -0.2747
     14 N          63.9775   89.7742   12.7002 N.am    1  UNL1       -0.2839
     15 H          63.9881   89.2964   13.5609 H       1  UNL1        0.1549
     16 C          64.6206   91.1243   12.5839 C.ar    1  UNL1        0.0504
     17 C          64.5402   91.8847   11.2934 C.ar    1  UNL1        0.0155
     18 C          65.1832   93.2349   11.1770 C.ar    1  UNL1        0.0127
     19 C          65.9067   93.8247   12.3512 C.ar    1  UNL1        0.0578
     20 CL         66.5498   95.1749   12.2348 Cl      1  UNL1       -0.0822
     21 C          65.9871   93.0644   13.6417 C.ar    1  UNL1        0.0127
     22 C          65.3440   91.7142   13.7580 C.ar    1  UNL1        0.0155
     23 C          62.0857   84.3062   13.2020 C.3     1  UNL1        0.1043
     24 C          62.8414   84.2216   14.4949 C.3     1  UNL1        0.1544
     25 O          62.7200   82.9995   15.3562 O.3     1  UNL1       -0.3805
     26 H          61.8132   82.9304   15.6935 H       1  UNL1        0.2105
     27 C          59.9677   91.1161    5.2769 C.2     1  UNL1        0.0580
     28 C          59.1892   90.0582    6.0012 C.2     1  UNL1        0.0047
     29 N          60.2427   92.3395    3.0014 N.am    1  UNL1       -0.2794
     30 C          59.3618   91.8181    4.0978 C.2     1  UNL1        0.2497
     31 O          57.8750   91.9986    4.0152 O.2     1  UNL1       -0.2698
     32 H          61.2186   92.2210    3.0557 H       1  UNL1        0.1552
     33 N          60.5426   95.3100    2.7074 N.pl3   1  UNL1       -0.3560
     34 C          59.7868   94.5267    1.6753 C.ar    1  UNL1        0.0552
     35 C          59.1809   95.2286    0.4963 C.ar    1  UNL1        0.0153
     36 C          58.4251   94.4453   -0.5358 C.ar    1  UNL1        0.0013
     37 C          58.2752   92.9601   -0.3888 C.ar    1  UNL1        0.0014
     38 C          58.8810   92.2582    0.7903 C.ar    1  UNL1        0.0159
     39 C          59.6368   93.0415    1.8223 C.ar    1  UNL1        0.0636
     40 H          60.6411   96.2848    2.6109 H       1  UNL1        0.1424
     41 H          60.9403   94.8493    3.4813 H       1  UNL1        0.1424
@<TRIPOS>BOND
     1    33    34    1
     2    34    35   ar
     3    35    36   ar
     4    36    37   ar
     5    37    38   ar
     6    38    39   ar
     7    39    29    1
     8    29    30   am
     9    30    31    2
    10    30    27    1
    11    27    28    2
    12    28     1    1
    13     1     2   ar
    14     2     3   ar
    15     3     4   ar
    16     7     4    1
    17     7     8    1
    18     8     9    1
    19     9    23    1
    20    23    24    1
    21    24    25    1
    22     9    10    1
    23    10    11    1
    24    11    12    1
    25    12    13    2
    26    12    14   am
    27    14    16    1
    28    16    17   ar
    29    17    18   ar
    30    18    19   ar
    31    19    20    1
    32    19    21   ar
    33    21    22   ar
    34     4     5   ar
    35     5     6   ar
    36    39    34   ar
    37     6     1   ar
    38    11     7    1
    39    22    16   ar
    40    33    40    1
    41    33    41    1
    42    29    32    1
    43    25    26    1
    44    14    15    1
@<TRIPOS>MOLECULE
*****
 41 44 0 0 0
SMALL
GASTEIGER

@<TRIPOS>ATOM
      1 C          60.0017   89.4479    7.3084 C.ar    1  UNL1        0.0001
      2 C          60.3823   89.9888    8.6547 C.ar    1  UNL1       -0.0003
      3 C          60.9237   89.0675    9.7074 C.ar    1  UNL1       -0.0042
      4 C          61.0845   87.6053    9.4138 C.ar    1  UNL1       -0.0206
      5 C          60.7039   87.0644    8.0675 C.ar    1  UNL1       -0.0042
      6 C          60.1625   87.9856    7.0148 C.ar    1  UNL1       -0.0003
      7 C          61.6258   86.6841   10.4665 C.3     1  UNL1        0.0483
      8 C          61.2862   85.2318   10.6266 C.3     1  UNL1        0.0770
      9 N          62.0523   84.7035   11.8030 N.3     1  UNL1       -0.2698
     10 C          62.8656   85.8293   12.3700 C.3     1  UNL1        0.0816
     11 C          62.6019   87.0534   11.5440 C.3     1  UNL1        0.0981
     12 C          63.2080   88.4087   11.7579 C.2     1  UNL1        0.2274
     13 O          63.1650   89.4311   10.6611 O.2     1  UNL1       -0.2747
     14 N          63.8572   88.7416   13.0685 N.am    1  UNL1       -0.2839
     15 H          63.8854   88.0705   13.7883 H       1  UNL1        0.1549
     16 C          64.4633   90.0969   13.2824 C.ar    1  UNL1        0.0504
     17 C          64.4209   91.1190   12.1855 C.ar    1  UNL1        0.0155
     18 C          65.0270   92.4744   12.3994 C.ar    1  UNL1        0.0127
     19 C          65.6755   92.8076   13.7102 C.ar    1  UNL1        0.0578
     20 CL         66.2816   94.1629   13.9241 Cl      1  UNL1       -0.0822
     21 C          65.7179   91.7854   14.8072 C.ar    1  UNL1        0.0127
     22 C          65.1118   90.4301   14.5933 C.ar    1  UNL1        0.0155
     23 C          62.0123   83.2966   12.3214 C.3     1  UNL1        0.1043
     24 C          63.1717   82.3756   12.0814 C.3     1  UNL1        0.1544
     25 O          64.5496   82.9376   11.8930 O.3     1  UNL1       -0.3805
     26 H          64.5791   83.4529   11.0717 H       1  UNL1        0.2105
     27 C          60.3809   90.9550    5.2265 C.2     1  UNL1        0.0580
     28 C          59.4604   90.3691    6.2556 C.2     1  UNL1        0.0047
     29 N          60.7531   92.4328    3.1223 N.am    1  UNL1       -0.2794
     30 C          59.8395   91.8763    4.1737 C.2     1  UNL1        0.2497
     31 O          58.3845   92.2410    4.1724 O.2     1  UNL1       -0.2698
     32 H          61.7081   92.1935    3.1231 H       1  UNL1        0.1552
     33 N          59.8221   91.3251    0.4943 N.pl3   1  UNL1       -0.3560
     34 C          59.7463   92.8002    0.7555 C.ar    1  UNL1        0.0552
     35 C          59.2050   93.7215   -0.2972 C.ar    1  UNL1        0.0153
     36 C          59.1292   95.1966   -0.0359 C.ar    1  UNL1        0.0013
     37 C          59.5947   95.7505    1.2780 C.ar    1  UNL1        0.0014
     38 C          60.1360   94.8292    2.3307 C.ar    1  UNL1        0.0159
     39 C          60.2118   93.3541    2.0695 C.ar    1  UNL1        0.0636
     40 H          59.5165   90.9616   -0.3681 H       1  UNL1        0.1424
     41 H          60.1773   90.7204    1.1853 H       1  UNL1        0.1424
@<TRIPOS>BOND
     1    33    34    1
     2    34    35   ar
     3    35    36   ar
     4    36    37   ar
     5    37    38   ar
     6    38    39   ar
     7    39    29    1
     8    29    30   am
     9    30    31    2
    10    30    27    1
    11    27    28    2
    12    28     1    1
    13     1     2   ar
    14     2     3   ar
    15     3     4   ar
    16     7     4    1
    17     7     8    1
    18     8     9    1
    19     9    23    1
    20    23    24    1
    21    24    25    1
    22     9    10    1
    23    10    11    1
    24    11    12    1
    25    12    13    2
    26    12    14   am
    27    14    16    1
    28    16    17   ar
    29    17    18   ar
    30    18    19   ar
    31    19    20    1
    32    19    21   ar
    33    21    22   ar
    34     4     5   ar
    35     5     6   ar
    36    39    34   ar
    37     6     1   ar
    38    11     7    1
    39    22    16   ar
    40    33    40    1
    41    33    41    1
    42    29    32    1
    43    25    26    1
    44    14    15    1
@<TRIPOS>MOLECULE
*****
 41 44 0 0 0
SMALL
GASTEIGER

@<TRIPOS>ATOM
      1 C          62.7696   90.6030   11.8712 C.ar    1  UNL1        0.0001
      2 C          63.2380   90.7786   10.4571 C.ar    1  UNL1       -0.0003
      3 C          62.3539   90.3666    9.3175 C.ar    1  UNL1       -0.0042
      4 C          61.0014   89.7791    9.5920 C.ar    1  UNL1       -0.0206
      5 C          60.5329   89.6034   11.0061 C.ar    1  UNL1       -0.0042
      6 C          61.4169   90.0154   12.1457 C.ar    1  UNL1       -0.0003
      7 C          60.1173   89.3671    8.4524 C.3     1  UNL1        0.0483
      8 C          59.2571   90.2797    7.6294 C.3     1  UNL1        0.0770
      9 N          58.5463   89.4469    6.6040 N.3     1  UNL1       -0.2698
     10 C          58.9672   88.0196    6.7934 C.3     1  UNL1        0.0816
     11 C          59.9382   87.9703    7.9358 C.3     1  UNL1        0.0981
     12 C          60.6117   86.7403    8.4680 C.2     1  UNL1        0.2274
     13 O          60.2971   85.3978    7.8773 O.2     1  UNL1       -0.2747
     14 N          61.5998   86.8526    9.5909 N.am    1  UNL1       -0.2839
     15 H          61.8062   87.7337    9.9787 H       1  UNL1        0.1549
     16 C          62.2733   85.6225   10.1232 C.ar    1  UNL1        0.0504
     17 C          62.0727   85.2169   11.5533 C.ar    1  UNL1        0.0155
     18 C          62.7462   83.9868   12.0855 C.ar    1  UNL1        0.0127
     19 C          63.6203   83.1623   11.1877 C.ar    1  UNL1        0.0578
     20 CL         64.2938   81.9322   11.7199 Cl      1  UNL1       -0.0822
     21 C          63.8209   83.5679    9.7576 C.ar    1  UNL1        0.0127
     22 C          63.1474   84.7980    9.2254 C.ar    1  UNL1        0.0155
     23 C          57.5837   89.9525    5.5708 C.3     1  UNL1        0.1043
     24 C          57.8024   91.2931    4.9344 C.3     1  UNL1        0.1544
     25 O          56.8209   92.4032    5.1676 O.3     1  UNL1       -0.3805
     26 H          55.9685   92.1706    4.7673 H       1  UNL1        0.2105
     27 C          64.9447   91.7283   12.7385 C.2     1  UNL1        0.0580
     28 C          63.6536   91.0149   13.0108 C.2     1  UNL1        0.0047
     29 N          67.3171   92.1805   13.6961 N.am    1  UNL1       -0.2794
     30 C          65.8288   92.1403   13.8781 C.2     1  UNL1        0.2497
     31 O          65.2245   92.5120   15.1997 O.2     1  UNL1       -0.2698
     32 H          67.7137   91.9365   12.8287 H       1  UNL1        0.1552
     33 N          67.3825   95.0452   14.5843 N.pl3   1  UNL1       -0.3560
     34 C          68.2340   94.0248   15.2798 C.ar    1  UNL1        0.0552
     35 C          69.1181   94.4367   16.4193 C.ar    1  UNL1        0.0153
     36 C          69.9695   93.4162   17.1149 C.ar    1  UNL1        0.0013
     37 C          69.9368   91.9839   16.6708 C.ar    1  UNL1        0.0014
     38 C          69.0527   91.5720   15.5313 C.ar    1  UNL1        0.0159
     39 C          68.2013   92.5924   14.8357 C.ar    1  UNL1        0.0636
     40 H          67.4040   95.9854   14.8757 H       1  UNL1        0.1424
     41 H          66.8023   94.7749   13.8363 H       1  UNL1        0.1424
@<TRIPOS>BOND
     1    33    34    1
     2    34    35   ar
     3    35    36   ar
     4    36    37   ar
     5    37    38   ar
     6    38    39   ar
     7    39    29    1
     8    29    30   am
     9    30    31    2
    10    30    27    1
    11    27    28    2
    12    28     1    1
    13     1     2   ar
    14     2     3   ar
    15     3     4   ar
    16     7     4    1
    17     7     8    1
    18     8     9    1
    19     9    23    1
    20    23    24    1
    21    24    25    1
    22     9    10    1
    23    10    11    1
    24    11    12    1
    25    12    13    2
    26    12    14   am
    27    14    16    1
    28    16    17   ar
    29    17    18   ar
    30    18    19   ar
    31    19    20    1
    32    19    21   ar
    33    21    22   ar
    34     4     5   ar
    35     5     6   ar
    36    39    34   ar
    37     6     1   ar
    38    11     7    1
    39    22    16   ar
    40    33    40    1
    41    33    41    1
    42    29    32    1
    43    25    26    1
    44    14    15    1
