@<TRIPOS>MOLECULE
*****
 26 28 0 0 0
SMALL
GASTEIGER

@<TRIPOS>ATOM
      1 C          64.1906   88.6246   14.2690 C.ar    1  UNL1       -0.0006
      2 C          64.6786   87.4988   15.1318 C.ar    1  UNL1       -0.0000
      3 C          64.4337   86.0774   14.7196 C.ar    1  UNL1        0.0000
      4 C          63.7008   85.7819   13.4446 C.ar    1  UNL1        0.0001
      5 C          63.2129   86.9077   12.5818 C.ar    1  UNL1        0.0000
      6 C          63.4577   88.3290   12.9939 C.ar    1  UNL1       -0.0000
      7 C          63.4560   84.3606   13.0324 C.ar    1  UNL1        0.0032
      8 C          63.7958   83.9139   11.6414 C.ar    1  UNL1        0.0033
      9 C          63.5509   82.4925   11.2293 C.ar    1  UNL1        0.0398
     10 C          62.9662   81.5179   12.2082 C.ar    1  UNL1        0.1675
     11 O          62.7213   80.0967   11.7960 O.3     1  UNL1       -0.5029
     12 C          62.6264   81.9646   13.5992 C.ar    1  UNL1        0.1675
     13 O          62.0417   80.9901   14.5781 O.3     1  UNL1       -0.5029
     14 C          62.8712   83.3859   14.0113 C.ar    1  UNL1        0.0398
     15 H          62.9336   79.8176   10.9271 H       1  UNL1        0.2923
     16 H          61.8887   80.1022   14.3206 H       1  UNL1        0.2923
     17 C          63.0013   89.6741   16.8153 C.3     1  UNL1        0.0264
     18 C          63.8408   90.5706   15.9543 C.2     1  UNL1       -0.0436
     19 C          64.0857   91.9920   16.3664 C.3     1  UNL1        0.0264
     20 C          64.4355   90.0459   14.6811 C.2     1  UNL1       -0.0078
     21 C          65.2751   90.9424   13.8201 C.ar    1  UNL1        0.0025
     22 C          64.6751   91.5992   12.6124 C.ar    1  UNL1        0.0207
     23 C          65.5147   92.4958   11.7514 C.ar    1  UNL1        0.0989
     24 N          66.9542   92.7355   12.0982 N.ar    1  UNL1       -0.2423
     25 C          67.5542   92.0787   13.3059 C.ar    1  UNL1        0.0989
     26 C          66.7146   91.1822   14.1668 C.ar    1  UNL1        0.0207
@<TRIPOS>BOND
     1    17    18    1
     2    18    19    1
     3    18    20    2
     4    20    21    1
     5    21    22   ar
     6    22    23   ar
     7    23    24   ar
     8    24    25   ar
     9    25    26   ar
    10    20     1    1
    11     1     2   ar
    12     2     3   ar
    13     3     4   ar
    14     4     7    1
    15     7     8   ar
    16     8     9   ar
    17     9    10   ar
    18    10    11    1
    19    10    12   ar
    20    12    13    1
    21    12    14   ar
    22     4     5   ar
    23     5     6   ar
    24    26    21   ar
    25     6     1   ar
    26    14     7   ar
    27    11    15    1
    28    13    16    1
@<TRIPOS>MOLECULE
*****
 26 28 0 0 0
SMALL
GASTEIGER

@<TRIPOS>ATOM
      1 C          64.5852   90.1531   13.9161 C.ar    1  UNL1       -0.0006
      2 C          65.8653   90.8430   14.2842 C.ar    1  UNL1       -0.0000
      3 C          66.4092   91.9322   13.4078 C.ar    1  UNL1        0.0000
      4 C          65.6729   92.3315   12.1635 C.ar    1  UNL1        0.0001
      5 C          64.3928   91.6417   11.7954 C.ar    1  UNL1        0.0000
      6 C          63.8490   90.5525   12.6717 C.ar    1  UNL1       -0.0000
      7 C          66.2168   93.4206   11.2872 C.ar    1  UNL1        0.0032
      8 C          66.0840   94.8554   11.7043 C.ar    1  UNL1        0.0033
      9 C          66.6279   95.9446   10.8279 C.ar    1  UNL1        0.0398
     10 C          67.3045   95.5990    9.5346 C.ar    1  UNL1        0.1675
     11 O          67.8484   96.6881    8.6583 O.3     1  UNL1       -0.5029
     12 C          67.4373   94.1643    9.1175 C.ar    1  UNL1        0.1675
     13 O          68.1139   93.8187    7.8242 O.3     1  UNL1       -0.5029
     14 C          66.8934   93.0751    9.9938 C.ar    1  UNL1        0.0398
     15 H          67.7655   97.5844    8.9188 H       1  UNL1        0.2923
     16 H          68.4536   94.4990    7.2768 H       1  UNL1        0.2923
     17 C          63.4759   90.8189   16.6228 C.3     1  UNL1        0.0264
     18 C          63.4867   89.3969   16.1458 C.2     1  UNL1       -0.0436
     19 C          62.9429   88.3076   17.0221 C.3     1  UNL1        0.0264
     20 C          64.0414   89.0640   14.7924 C.2     1  UNL1       -0.0078
     21 C          64.0522   87.6418   14.3154 C.ar    1  UNL1        0.0025
     22 C          64.8324   86.6045   15.0671 C.ar    1  UNL1        0.0207
     23 C          64.8432   85.1825   14.5900 C.ar    1  UNL1        0.0989
     24 N          64.0737   84.7978   13.3613 N.ar    1  UNL1       -0.2423
     25 C          63.2934   85.8351   12.6096 C.ar    1  UNL1        0.0989
     26 C          63.2826   87.2571   13.0866 C.ar    1  UNL1        0.0207
@<TRIPOS>BOND
     1    17    18    1
     2    18    19    1
     3    18    20    2
     4    20    21    1
     5    21    22   ar
     6    22    23   ar
     7    23    24   ar
     8    24    25   ar
     9    25    26   ar
    10    20     1    1
    11     1     2   ar
    12     2     3   ar
    13     3     4   ar
    14     4     7    1
    15     7     8   ar
    16     8     9   ar
    17     9    10   ar
    18    10    11    1
    19    10    12   ar
    20    12    13    1
    21    12    14   ar
    22     4     5   ar
    23     5     6   ar
    24    26    21   ar
    25     6     1   ar
    26    14     7   ar
    27    11    15    1
    28    13    16    1
@<TRIPOS>MOLECULE
*****
 26 28 0 0 0
SMALL
GASTEIGER

@<TRIPOS>ATOM
      1 C          64.1697   88.6088   14.2778 C.ar    1  UNL1       -0.0006
      2 C          64.6168   87.4736   15.1504 C.ar    1  UNL1       -0.0000
      3 C          64.3766   86.0569   14.7197 C.ar    1  UNL1        0.0000
      4 C          63.6893   85.7755   13.4166 C.ar    1  UNL1        0.0001
      5 C          63.2421   86.9106   12.5440 C.ar    1  UNL1        0.0000
      6 C          63.4823   88.3273   12.9745 C.ar    1  UNL1       -0.0000
      7 C          63.4491   84.3588   12.9860 C.ar    1  UNL1        0.0032
      8 C          62.6073   83.4502   13.8322 C.ar    1  UNL1        0.0033
      9 C          62.3672   82.0335   13.4016 C.ar    1  UNL1        0.0398
     10 C          62.9687   81.5255   12.1249 C.ar    1  UNL1        0.1675
     11 O          62.7285   80.1089   11.6943 O.3     1  UNL1       -0.5029
     12 C          63.8104   82.4341   11.2787 C.ar    1  UNL1        0.1675
     13 O          64.4120   81.9261   10.0020 O.3     1  UNL1       -0.5029
     14 C          64.0506   83.8507   11.7093 C.ar    1  UNL1        0.0398
     15 H          62.2027   79.5413   12.2229 H       1  UNL1        0.2923
     16 H          64.2619   81.0411    9.7331 H       1  UNL1        0.2923
     17 C          62.9765   89.6215   16.8372 C.3     1  UNL1        0.0264
     18 C          63.8133   90.5318   15.9880 C.2     1  UNL1       -0.0436
     19 C          64.0535   91.9485   16.4186 C.3     1  UNL1        0.0264
     20 C          64.4098   90.0254   14.7083 C.2     1  UNL1       -0.0078
     21 C          65.2467   90.9358   13.8591 C.ar    1  UNL1        0.0025
     22 C          66.6820   91.1853   14.2161 C.ar    1  UNL1        0.0207
     23 C          67.5187   92.0956   13.3670 C.ar    1  UNL1        0.0989
     24 N          66.9201   92.7565   12.1608 N.ar    1  UNL1       -0.2423
     25 C          65.4848   92.5070   11.8037 C.ar    1  UNL1        0.0989
     26 C          64.6480   91.5966   12.6529 C.ar    1  UNL1        0.0207
@<TRIPOS>BOND
     1    17    18    1
     2    18    19    1
     3    18    20    2
     4    20    21    1
     5    21    22   ar
     6    22    23   ar
     7    23    24   ar
     8    24    25   ar
     9    25    26   ar
    10    20     1    1
    11     1     2   ar
    12     2     3   ar
    13     3     4   ar
    14     4     7    1
    15     7     8   ar
    16     8     9   ar
    17     9    10   ar
    18    10    11    1
    19    10    12   ar
    20    12    13    1
    21    12    14   ar
    22     4     5   ar
    23     5     6   ar
    24    26    21   ar
    25     6     1   ar
    26    14     7   ar
    27    11    15    1
    28    13    16    1
@<TRIPOS>MOLECULE
*****
 26 28 0 0 0
SMALL
GASTEIGER

@<TRIPOS>ATOM
      1 C          62.9394   89.1673   12.0178 C.ar    1  UNL1       -0.0006
      2 C          63.5213   88.6308   13.2920 C.ar    1  UNL1       -0.0000
      3 C          64.5587   89.4207   14.0337 C.ar    1  UNL1        0.0000
      4 C          65.0142   90.7469   13.5012 C.ar    1  UNL1        0.0001
      5 C          64.4322   91.2833   12.2270 C.ar    1  UNL1        0.0000
      6 C          63.3949   90.4936   11.4853 C.ar    1  UNL1       -0.0000
      7 C          66.0515   91.5367   14.2428 C.ar    1  UNL1        0.0032
      8 C          65.6737   92.2948   15.4807 C.ar    1  UNL1        0.0033
      9 C          66.7111   93.0847   16.2224 C.ar    1  UNL1        0.0398
     10 C          68.1263   93.1163   15.7262 C.ar    1  UNL1        0.1675
     11 O          69.1636   93.9061   16.4678 O.3     1  UNL1       -0.5029
     12 C          68.5041   92.3581   14.4883 C.ar    1  UNL1        0.1675
     13 O          69.9192   92.3897   13.9920 O.3     1  UNL1       -0.5029
     14 C          67.4667   91.5683   13.7466 C.ar    1  UNL1        0.0398
     15 H          68.9276   94.3796   17.2411 H       1  UNL1        0.2923
     16 H          70.5673   92.8831   14.4553 H       1  UNL1        0.2923
     17 C          60.1525   90.2417   11.7380 C.3     1  UNL1        0.0264
     18 C          60.5086   88.9147   11.1362 C.2     1  UNL1       -0.0436
     19 C          59.4712   88.1248   10.3945 C.3     1  UNL1        0.0264
     20 C          61.9021   88.3775   11.2761 C.2     1  UNL1       -0.0078
     21 C          62.2582   87.0504   10.6744 C.ar    1  UNL1        0.0025
     22 C          62.3945   85.8414   11.5517 C.ar    1  UNL1        0.0207
     23 C          62.7506   84.5144   10.9499 C.ar    1  UNL1        0.0989
     24 N          62.9704   84.3964    9.4707 N.ar    1  UNL1       -0.2423
     25 C          62.8341   85.6054    8.5934 C.ar    1  UNL1        0.0989
     26 C          62.4780   86.9324    9.1952 C.ar    1  UNL1        0.0207
@<TRIPOS>BOND
     1    17    18    1
     2    18    19    1
     3    18    20    2
     4    20    21    1
     5    21    22   ar
     6    22    23   ar
     7    23    24   ar
     8    24    25   ar
     9    25    26   ar
    10    20     1    1
    11     1     2   ar
    12     2     3   ar
    13     3     4   ar
    14     4     7    1
    15     7     8   ar
    16     8     9   ar
    17     9    10   ar
    18    10    11    1
    19    10    12   ar
    20    12    13    1
    21    12    14   ar
    22     4     5   ar
    23     5     6   ar
    24    26    21   ar
    25     6     1   ar
    26    14     7   ar
    27    11    15    1
    28    13    16    1
@<TRIPOS>MOLECULE
*****
 26 28 0 0 0
SMALL
GASTEIGER

@<TRIPOS>ATOM
      1 C          63.5435   89.5249   12.9393 C.ar    1  UNL1       -0.0006
      2 C          62.9787   90.1767   11.7121 C.ar    1  UNL1       -0.0000
      3 C          62.4562   89.3327   10.5875 C.ar    1  UNL1        0.0000
      4 C          62.4986   87.8368   10.6901 C.ar    1  UNL1        0.0001
      5 C          63.0634   87.1850   11.9174 C.ar    1  UNL1        0.0000
      6 C          63.5858   88.0290   13.0419 C.ar    1  UNL1       -0.0000
      7 C          61.9761   86.9928    9.5656 C.ar    1  UNL1        0.0032
      8 C          62.8774   86.0023    8.8899 C.ar    1  UNL1        0.0033
      9 C          62.3548   85.1583    7.7652 C.ar    1  UNL1        0.0398
     10 C          60.9311   85.3048    7.3164 C.ar    1  UNL1        0.1675
     11 O          60.4087   84.4608    6.1919 O.3     1  UNL1       -0.5029
     12 C          60.0299   86.2953    7.9922 C.ar    1  UNL1        0.1675
     13 O          58.6061   86.4418    7.5433 O.3     1  UNL1       -0.5029
     14 C          60.5523   87.1393    9.1167 C.ar    1  UNL1        0.0398
     15 H          60.9717   83.8421    5.7698 H       1  UNL1        0.2923
     16 H          58.2797   85.9146    6.8408 H       1  UNL1        0.2923
     17 C          62.2587   89.3792   15.6463 C.3     1  UNL1        0.0264
     18 C          63.4236   90.2960   15.4174 C.2     1  UNL1       -0.0436
     19 C          63.9461   91.1401   16.5419 C.3     1  UNL1        0.0264
     20 C          64.0660   90.3689   14.0638 C.2     1  UNL1       -0.0078
     21 C          65.2309   91.2858   13.8349 C.ar    1  UNL1        0.0025
     22 C          66.5016   91.0913   14.6077 C.ar    1  UNL1        0.0207
     23 C          67.6664   92.0081   14.3788 C.ar    1  UNL1        0.0989
     24 N          67.5605   93.1195   13.3770 N.ar    1  UNL1       -0.2423
     25 C          66.2898   93.3141   12.6042 C.ar    1  UNL1        0.0989
     26 C          65.1249   92.3972   12.8331 C.ar    1  UNL1        0.0207
@<TRIPOS>BOND
     1    17    18    1
     2    18    19    1
     3    18    20    2
     4    20    21    1
     5    21    22   ar
     6    22    23   ar
     7    23    24   ar
     8    24    25   ar
     9    25    26   ar
    10    20     1    1
    11     1     2   ar
    12     2     3   ar
    13     3     4   ar
    14     4     7    1
    15     7     8   ar
    16     8     9   ar
    17     9    10   ar
    18    10    11    1
    19    10    12   ar
    20    12    13    1
    21    12    14   ar
    22     4     5   ar
    23     5     6   ar
    24    26    21   ar
    25     6     1   ar
    26    14     7   ar
    27    11    15    1
    28    13    16    1
@<TRIPOS>MOLECULE
*****
 26 28 0 0 0
SMALL
GASTEIGER

@<TRIPOS>ATOM
      1 C          62.5924   88.6709   11.1455 C.ar    1  UNL1       -0.0006
      2 C          63.0748   88.1721   12.4754 C.ar    1  UNL1       -0.0000
      3 C          63.9046   89.0610   13.3537 C.ar    1  UNL1        0.0000
      4 C          64.2519   90.4486   12.9022 C.ar    1  UNL1        0.0001
      5 C          63.7695   90.9474   11.5723 C.ar    1  UNL1        0.0000
      6 C          62.9397   90.0585   10.6940 C.ar    1  UNL1       -0.0000
      7 C          65.0816   91.3374   13.7805 C.ar    1  UNL1        0.0032
      8 C          66.3337   91.9650   13.2434 C.ar    1  UNL1        0.0033
      9 C          67.1635   92.8539   14.1218 C.ar    1  UNL1        0.0398
     10 C          66.7411   93.1151   15.5372 C.ar    1  UNL1        0.1675
     11 O          67.5709   94.0039   16.4155 O.3     1  UNL1       -0.5029
     12 C          65.4891   92.4875   16.0743 C.ar    1  UNL1        0.1675
     13 O          65.0667   92.7487   17.4896 O.3     1  UNL1       -0.5029
     14 C          64.6593   91.5987   15.1959 C.ar    1  UNL1        0.0398
     15 H          68.3530   94.3960   16.0800 H       1  UNL1        0.2923
     16 H          65.5851   93.3040   18.0383 H       1  UNL1        0.2923
     17 C          59.9542   89.6395   10.0959 C.3     1  UNL1        0.0264
     18 C          60.4435   88.2664    9.7424 C.2     1  UNL1       -0.0436
     19 C          59.6138   87.3775    8.8640 C.3     1  UNL1        0.0264
     20 C          61.7626   87.7821   10.2672 C.2     1  UNL1       -0.0078
     21 C          62.2520   86.4088    9.9137 C.ar    1  UNL1        0.0025
     22 C          62.3691   85.3575   10.9772 C.ar    1  UNL1        0.0207
     23 C          62.8584   83.9844   10.6236 C.ar    1  UNL1        0.0989
     24 N          63.2306   83.6626    9.2066 N.ar    1  UNL1       -0.2423
     25 C          63.1134   84.7139    8.1431 C.ar    1  UNL1        0.0989
     26 C          62.6241   86.0870    8.4967 C.ar    1  UNL1        0.0207
@<TRIPOS>BOND
     1    17    18    1
     2    18    19    1
     3    18    20    2
     4    20    21    1
     5    21    22   ar
     6    22    23   ar
     7    23    24   ar
     8    24    25   ar
     9    25    26   ar
    10    20     1    1
    11     1     2   ar
    12     2     3   ar
    13     3     4   ar
    14     4     7    1
    15     7     8   ar
    16     8     9   ar
    17     9    10   ar
    18    10    11    1
    19    10    12   ar
    20    12    13    1
    21    12    14   ar
    22     4     5   ar
    23     5     6   ar
    24    26    21   ar
    25     6     1   ar
    26    14     7   ar
    27    11    15    1
    28    13    16    1
@<TRIPOS>MOLECULE
*****
 26 28 0 0 0
SMALL
GASTEIGER

@<TRIPOS>ATOM
      1 C          63.7654   88.6688   13.0010 C.ar    1  UNL1       -0.0006
      2 C          62.9747   88.0104   11.9095 C.ar    1  UNL1       -0.0000
      3 C          62.6998   86.5369   11.9668 C.ar    1  UNL1        0.0000
      4 C          63.2156   85.7218   13.1155 C.ar    1  UNL1        0.0001
      5 C          64.0063   86.3802   14.2069 C.ar    1  UNL1        0.0000
      6 C          64.2812   87.8536   14.1497 C.ar    1  UNL1       -0.0000
      7 C          62.9407   84.2483   13.1727 C.ar    1  UNL1        0.0032
      8 C          62.4611   83.6239   14.4494 C.ar    1  UNL1        0.0033
      9 C          62.1862   82.1503   14.5066 C.ar    1  UNL1        0.0398
     10 C          62.3909   81.3013   13.2870 C.ar    1  UNL1        0.1675
     11 O          62.1160   79.8279   13.3443 O.3     1  UNL1       -0.5029
     12 C          62.8704   81.9258   12.0103 C.ar    1  UNL1        0.1675
     13 O          63.0751   81.0768   10.7908 O.3     1  UNL1       -0.5029
     14 C          63.1454   83.3993   11.9531 C.ar    1  UNL1        0.0398
     15 H          61.8164   79.4378   14.1418 H       1  UNL1        0.2923
     16 H          62.9034   80.1564   10.8265 H       1  UNL1        0.2923
     17 C          63.1925   90.2051   10.4887 C.3     1  UNL1        0.0264
     18 C          63.7539   90.9104   11.6877 C.2     1  UNL1       -0.0436
     19 C          64.0288   92.3839   11.6305 C.3     1  UNL1        0.0264
     20 C          64.0403   90.1422   12.9438 C.2     1  UNL1       -0.0078
     21 C          64.6016   90.8476   14.1428 C.ar    1  UNL1        0.0025
     22 C          66.0278   91.3122   14.1400 C.ar    1  UNL1        0.0207
     23 C          66.5891   92.0175   15.3390 C.ar    1  UNL1        0.0989
     24 N          65.7242   92.2582   16.5406 N.ar    1  UNL1       -0.2423
     25 C          64.2980   91.7936   16.5433 C.ar    1  UNL1        0.0989
     26 C          63.7367   91.0883   15.3444 C.ar    1  UNL1        0.0207
@<TRIPOS>BOND
     1    17    18    1
     2    18    19    1
     3    18    20    2
     4    20    21    1
     5    21    22   ar
     6    22    23   ar
     7    23    24   ar
     8    24    25   ar
     9    25    26   ar
    10    20     1    1
    11     1     2   ar
    12     2     3   ar
    13     3     4   ar
    14     4     7    1
    15     7     8   ar
    16     8     9   ar
    17     9    10   ar
    18    10    11    1
    19    10    12   ar
    20    12    13    1
    21    12    14   ar
    22     4     5   ar
    23     5     6   ar
    24    26    21   ar
    25     6     1   ar
    26    14     7   ar
    27    11    15    1
    28    13    16    1
@<TRIPOS>MOLECULE
*****
 26 28 0 0 0
SMALL
GASTEIGER

@<TRIPOS>ATOM
      1 C          62.7319   87.6499   11.5610 C.ar    1  UNL1       -0.0006
      2 C          62.7622   89.0971   11.1679 C.ar    1  UNL1       -0.0000
      3 C          63.4468   90.0995   12.0492 C.ar    1  UNL1        0.0000
      4 C          64.1010   89.6547   13.3235 C.ar    1  UNL1        0.0001
      5 C          64.0707   88.2074   13.7167 C.ar    1  UNL1        0.0000
      6 C          63.3862   87.2050   12.8355 C.ar    1  UNL1       -0.0000
      7 C          64.7856   90.6570   14.2048 C.ar    1  UNL1        0.0032
      8 C          64.2171   90.9810   15.5545 C.ar    1  UNL1        0.0033
      9 C          64.9017   91.9834   16.4358 C.ar    1  UNL1        0.0398
     10 C          66.1547   92.6619   15.9672 C.ar    1  UNL1        0.1675
     11 O          66.8392   93.6643   16.8484 O.3     1  UNL1       -0.5029
     12 C          66.7232   92.3380   14.6174 C.ar    1  UNL1        0.1675
     13 O          67.9762   93.0164   14.1489 O.3     1  UNL1       -0.5029
     14 C          66.0387   91.3356   13.7362 C.ar    1  UNL1        0.0398
     15 H          66.4841   93.8666   17.6916 H       1  UNL1        0.2923
     16 H          68.4038   93.6426   14.6993 H       1  UNL1        0.2923
     17 C          60.4484   88.5022    9.8120 C.3     1  UNL1        0.0264
     18 C          60.9056   87.0737    9.8053 C.2     1  UNL1       -0.0436
     19 C          60.2211   86.0712    8.9241 C.3     1  UNL1        0.0264
     20 C          62.0474   86.6475   10.6798 C.2     1  UNL1       -0.0078
     21 C          62.5046   85.2188   10.6731 C.ar    1  UNL1        0.0025
     22 C          62.1564   84.3145   11.8180 C.ar    1  UNL1        0.0207
     23 C          62.6137   82.8859   11.8112 C.ar    1  UNL1        0.0989
     24 N          63.4191   82.3617   10.6595 N.ar    1  UNL1       -0.2423
     25 C          63.7673   83.2660    9.5145 C.ar    1  UNL1        0.0989
     26 C          63.3100   84.6946    9.5213 C.ar    1  UNL1        0.0207
@<TRIPOS>BOND
     1    17    18    1
     2    18    19    1
     3    18    20    2
     4    20    21    1
     5    21    22   ar
     6    22    23   ar
     7    23    24   ar
     8    24    25   ar
     9    25    26   ar
    10    20     1    1
    11     1     2   ar
    12     2     3   ar
    13     3     4   ar
    14     4     7    1
    15     7     8   ar
    16     8     9   ar
    17     9    10   ar
    18    10    11    1
    19    10    12   ar
    20    12    13    1
    21    12    14   ar
    22     4     5   ar
    23     5     6   ar
    24    26    21   ar
    25     6     1   ar
    26    14     7   ar
    27    11    15    1
    28    13    16    1
@<TRIPOS>MOLECULE
*****
 26 28 0 0 0
SMALL
GASTEIGER

@<TRIPOS>ATOM
      1 C          63.1746   86.1950   12.2541 C.ar    1  UNL1       -0.0006
      2 C          62.8631   87.5744   11.7538 C.ar    1  UNL1       -0.0000
      3 C          63.2470   88.7728   12.5702 C.ar    1  UNL1        0.0000
      4 C          63.9425   88.5919   13.8868 C.ar    1  UNL1        0.0001
      5 C          64.2541   87.2125   14.3871 C.ar    1  UNL1        0.0000
      6 C          63.8702   86.0141   13.5708 C.ar    1  UNL1       -0.0000
      7 C          64.3264   89.7903   14.7031 C.ar    1  UNL1        0.0032
      8 C          63.5337   90.1511   15.9243 C.ar    1  UNL1        0.0033
      9 C          63.9176   91.3496   16.7406 C.ar    1  UNL1        0.0398
     10 C          65.0942   92.1872   16.3357 C.ar    1  UNL1        0.1675
     11 O          65.4781   93.3856   17.1520 O.3     1  UNL1       -0.5029
     12 C          65.8870   91.8263   15.1145 C.ar    1  UNL1        0.1675
     13 O          67.0636   92.6639   14.7096 O.3     1  UNL1       -0.5029
     14 C          65.5031   90.6279   14.2982 C.ar    1  UNL1        0.0398
     15 H          64.9829   93.6110   17.9148 H       1  UNL1        0.2923
     16 H          67.3034   93.4125   15.2195 H       1  UNL1        0.2923
     17 C          63.3136   83.4516   13.4600 C.3     1  UNL1        0.0264
     18 C          62.8602   83.6249   12.0408 C.2     1  UNL1       -0.0436
     19 C          62.4763   82.4264   11.2244 C.3     1  UNL1        0.0264
     20 C          62.7907   84.9966   11.4378 C.2     1  UNL1       -0.0078
     21 C          62.3373   85.1699   10.0185 C.ar    1  UNL1        0.0025
     22 C          63.2076   84.7006    8.8905 C.ar    1  UNL1        0.0207
     23 C          62.7541   84.8739    7.4713 C.ar    1  UNL1        0.0989
     24 N          61.4304   85.5164    7.1800 N.ar    1  UNL1       -0.2423
     25 C          60.5601   85.9857    8.3079 C.ar    1  UNL1        0.0989
     26 C          61.0136   85.8124    9.7272 C.ar    1  UNL1        0.0207
@<TRIPOS>BOND
     1    17    18    1
     2    18    19    1
     3    18    20    2
     4    20    21    1
     5    21    22   ar
     6    22    23   ar
     7    23    24   ar
     8    24    25   ar
     9    25    26   ar
    10    20     1    1
    11     1     2   ar
    12     2     3   ar
    13     3     4   ar
    14     4     7    1
    15     7     8   ar
    16     8     9   ar
    17     9    10   ar
    18    10    11    1
    19    10    12   ar
    20    12    13    1
    21    12    14   ar
    22     4     5   ar
    23     5     6   ar
    24    26    21   ar
    25     6     1   ar
    26    14     7   ar
    27    11    15    1
    28    13    16    1
