@<TRIPOS>MOLECULE
*****
 25 27 0 0 0
SMALL
GASTEIGER

@<TRIPOS>ATOM
      1 C          63.2873   90.6758   11.7890 C.ar    1  UNL1        0.1655
      2 N          63.0002   90.4062   13.2364 N.ar    1  UNL1       -0.2239
      3 C          64.0541   91.0926   14.0537 C.ar    1  UNL1        0.0892
      4 C          64.2805   91.1755   15.5342 C.ar    1  UNL1        0.0196
      5 C          65.4453   91.9523   16.0724 C.ar    1  UNL1        0.0054
      6 C          66.3838   92.6462   15.1302 C.ar    1  UNL1        0.0720
      7 C          66.1574   92.5633   13.6497 C.ar    1  UNL1        0.0119
      8 C          64.9926   91.7866   13.1115 C.ar    1  UNL1        0.0497
      9 S          64.5186   91.5289   11.7118 S.2     1  UNL1       -0.0514
     10 C          62.0644   88.7408   10.5601 C.2     1  UNL1        0.2270
     11 O          62.4481   87.7983   11.6622 O.2     1  UNL1       -0.2747
     12 N          62.4840   90.1795   10.6235 N.am    1  UNL1       -0.2641
     13 H          62.2322   90.7980    9.9001 H       1  UNL1        0.1567
     14 C          58.5605   89.5955    6.8196 C.3     1  UNL1        0.0000
     15 C          59.5092   88.6718    7.5243 C.3     1  UNL1        0.0005
     16 C          59.6547   87.2518    7.0635 C.3     1  UNL1        0.0000
     17 C          60.6035   86.3281    7.7682 C.3     1  UNL1        0.0005
     18 C          60.7490   84.9081    7.3074 C.3     1  UNL1        0.0000
     19 C          61.4067   86.8244    8.9337 C.3     1  UNL1        0.0091
     20 C          61.2612   88.2445    9.3945 C.3     1  UNL1        0.0769
     21 C          60.3124   89.1681    8.6898 C.3     1  UNL1        0.0091
     22 C          67.5486   93.4230   15.6685 C.3     1  UNL1        0.4186
     23 F          68.7134   94.1998   16.2068 F       1  UNL1       -0.1659
     24 F          67.7926   92.3505   16.6884 F       1  UNL1       -0.1659
     25 F          67.3047   94.4955   14.6486 F       1  UNL1       -0.1659
@<TRIPOS>BOND
     1    14    15    1
     2    15    16    1
     3    16    17    1
     4    17    18    1
     5    17    19    1
     6    19    20    1
     7    20    10    1
     8    10    11    2
     9    10    12   am
    10    12     1    1
    11     1     2   ar
    12     2     3   ar
    13     3     4   ar
    14     4     5   ar
    15     5     6   ar
    16     6    22    1
    17    22    23    1
    18    22    24    1
    19    22    25    1
    20     6     7   ar
    21     7     8   ar
    22     8     9   ar
    23    20    21    1
    24    21    15    1
    25     9     1   ar
    26     8     3   ar
    27    12    13    1
@<TRIPOS>MOLECULE
*****
 25 27 0 0 0
SMALL
GASTEIGER

@<TRIPOS>ATOM
      1 C          63.2980   90.6706   11.7836 C.ar    1  UNL1        0.1655
      2 N          63.0094   90.4029   13.2310 N.ar    1  UNL1       -0.2239
      3 C          64.0621   91.0911   14.0486 C.ar    1  UNL1        0.0892
      4 C          64.2867   91.1763   15.5292 C.ar    1  UNL1        0.0196
      5 C          65.4505   91.9544   16.0676 C.ar    1  UNL1        0.0054
      6 C          66.3897   92.6475   15.1254 C.ar    1  UNL1        0.0720
      7 C          66.1650   92.5623   13.6448 C.ar    1  UNL1        0.0119
      8 C          65.0012   91.7841   13.1064 C.ar    1  UNL1        0.0497
      9 S          64.5290   91.5242   11.7066 S.2     1  UNL1       -0.0514
     10 C          62.0699   88.7352   10.5605 C.2     1  UNL1        0.2270
     11 O          62.4451   87.7966   11.6688 O.2     1  UNL1       -0.2747
     12 N          62.4963   90.1721   10.6179 N.am    1  UNL1       -0.2641
     13 H          62.2500   90.7881    9.8905 H       1  UNL1        0.1567
     14 C          60.7718   84.9016    7.3020 C.3     1  UNL1        0.0000
     15 C          60.6192   86.3200    7.7655 C.3     1  UNL1        0.0005
     16 C          59.6649   87.2399    7.0634 C.3     1  UNL1        0.0000
     17 C          59.5122   88.6583    7.5269 C.3     1  UNL1        0.0005
     18 C          58.5579   89.5782    6.8248 C.3     1  UNL1        0.0000
     19 C          60.3139   89.1567    8.6926 C.3     1  UNL1        0.0091
     20 C          61.2682   88.2368    9.3948 C.3     1  UNL1        0.0769
     21 C          61.4208   86.8184    8.9312 C.3     1  UNL1        0.0091
     22 C          67.5536   93.4257   15.6639 C.3     1  UNL1        0.4186
     23 F          68.7173   94.2038   16.2023 F       1  UNL1       -0.1659
     24 F          67.7959   92.3555   16.6866 F       1  UNL1       -0.1659
     25 F          67.3112   94.4958   14.6411 F       1  UNL1       -0.1659
@<TRIPOS>BOND
     1    14    15    1
     2    15    16    1
     3    16    17    1
     4    17    18    1
     5    17    19    1
     6    19    20    1
     7    20    10    1
     8    10    11    2
     9    10    12   am
    10    12     1    1
    11     1     2   ar
    12     2     3   ar
    13     3     4   ar
    14     4     5   ar
    15     5     6   ar
    16     6    22    1
    17    22    23    1
    18    22    24    1
    19    22    25    1
    20     6     7   ar
    21     7     8   ar
    22     8     9   ar
    23    20    21    1
    24    21    15    1
    25     9     1   ar
    26     8     3   ar
    27    12    13    1
@<TRIPOS>MOLECULE
*****
 25 27 0 0 0
SMALL
GASTEIGER

@<TRIPOS>ATOM
      1 C          63.8646   85.9946   14.3055 C.ar    1  UNL1        0.1655
      2 N          62.9344   85.2211   15.1923 N.ar    1  UNL1       -0.2239
      3 C          62.7164   83.8729   14.5719 C.ar    1  UNL1        0.0892
      4 C          61.8964   82.6920   14.9995 C.ar    1  UNL1        0.0196
      5 C          61.8719   81.4514   14.1568 C.ar    1  UNL1        0.0054
      6 C          62.6674   81.3916   12.8865 C.ar    1  UNL1        0.0720
      7 C          63.4874   82.5726   12.4589 C.ar    1  UNL1        0.0119
      8 C          63.5120   83.8132   13.3016 C.ar    1  UNL1        0.0497
      9 S          64.2215   85.1245   13.1370 S.2     1  UNL1       -0.0514
     10 C          63.9334   88.5011   13.6254 C.2     1  UNL1        0.2270
     11 O          63.0269   88.2114   12.4659 O.2     1  UNL1       -0.2747
     12 N          64.3522   87.3927   14.5452 N.am    1  UNL1       -0.2641
     13 H          64.9472   87.5829   15.3062 H       1  UNL1        0.1567
     14 C          65.1608   92.3384   16.9069 C.3     1  UNL1        0.0000
     15 C          65.0348   91.8179   15.5058 C.3     1  UNL1        0.0005
     16 C          65.3963   92.6955   14.3443 C.3     1  UNL1        0.0000
     17 C          65.2702   92.1750   12.9431 C.3     1  UNL1        0.0005
     18 C          65.6318   93.0527   11.7817 C.3     1  UNL1        0.0000
     19 C          64.7826   90.7769   12.7035 C.3     1  UNL1        0.0091
     20 C          64.4210   89.8993   13.8650 C.3     1  UNL1        0.0769
     21 C          64.5471   90.4198   15.2661 C.3     1  UNL1        0.0091
     22 C          62.6428   80.1509   12.0438 C.3     1  UNL1        0.4186
     23 F          62.6183   78.9103   11.2011 F       1  UNL1       -0.1659
     24 F          62.2744   79.3389   13.2500 F       1  UNL1       -0.1659
     25 F          63.0112   80.9629   10.8376 F       1  UNL1       -0.1659
@<TRIPOS>BOND
     1    14    15    1
     2    15    16    1
     3    16    17    1
     4    17    18    1
     5    17    19    1
     6    19    20    1
     7    20    10    1
     8    10    11    2
     9    10    12   am
    10    12     1    1
    11     1     2   ar
    12     2     3   ar
    13     3     4   ar
    14     4     5   ar
    15     5     6   ar
    16     6    22    1
    17    22    23    1
    18    22    24    1
    19    22    25    1
    20     6     7   ar
    21     7     8   ar
    22     8     9   ar
    23    20    21    1
    24    21    15    1
    25     9     1   ar
    26     8     3   ar
    27    12    13    1
@<TRIPOS>MOLECULE
*****
 25 27 0 0 0
SMALL
GASTEIGER

@<TRIPOS>ATOM
      1 C          63.8723   85.9904   14.3073 C.ar    1  UNL1        0.1655
      2 N          62.9469   85.2163   15.1985 N.ar    1  UNL1       -0.2239
      3 C          62.7258   83.8685   14.5784 C.ar    1  UNL1        0.0892
      4 C          61.9081   82.6872   15.0097 C.ar    1  UNL1        0.0196
      5 C          61.8792   81.4471   14.1664 C.ar    1  UNL1        0.0054
      6 C          62.6680   81.3882   12.8919 C.ar    1  UNL1        0.0720
      7 C          63.4857   82.5694   12.4607 C.ar    1  UNL1        0.0119
      8 C          63.5146   83.8096   13.3040 C.ar    1  UNL1        0.0497
      9 S          64.2232   85.1210   13.1364 S.2     1  UNL1       -0.0514
     10 C          63.9325   88.4984   13.6319 C.2     1  UNL1        0.2270
     11 O          63.0150   88.2104   12.4806 O.2     1  UNL1       -0.2747
     12 N          64.3611   87.3885   14.5452 N.am    1  UNL1       -0.2641
     13 H          64.9633   87.5775   15.3008 H       1  UNL1        0.1567
     14 C          65.6549   93.0390   11.7836 C.3     1  UNL1        0.0000
     15 C          65.2825   92.1668   12.9456 C.3     1  UNL1        0.0005
     16 C          65.3988   92.6925   14.3456 C.3     1  UNL1        0.0000
     17 C          65.0264   91.8203   15.5078 C.3     1  UNL1        0.0005
     18 C          65.1428   92.3461   16.9077 C.3     1  UNL1        0.0000
     19 C          64.5376   90.4222   15.2699 C.3     1  UNL1        0.0091
     20 C          64.4213   89.8965   13.8698 C.3     1  UNL1        0.0769
     21 C          64.7937   90.7687   12.7077 C.3     1  UNL1        0.0091
     22 C          62.6391   80.1479   12.0486 C.3     1  UNL1        0.4186
     23 F          62.6102   78.9078   11.2054 F       1  UNL1       -0.1659
     24 F          62.9974   80.9612   10.8402 F       1  UNL1       -0.1659
     25 F          62.2808   79.3347   13.2570 F       1  UNL1       -0.1659
@<TRIPOS>BOND
     1    14    15    1
     2    15    16    1
     3    16    17    1
     4    17    18    1
     5    17    19    1
     6    19    20    1
     7    20    10    1
     8    10    11    2
     9    10    12   am
    10    12     1    1
    11     1     2   ar
    12     2     3   ar
    13     3     4   ar
    14     4     5   ar
    15     5     6   ar
    16     6    22    1
    17    22    23    1
    18    22    24    1
    19    22    25    1
    20     6     7   ar
    21     7     8   ar
    22     8     9   ar
    23    20    21    1
    24    21    15    1
    25     9     1   ar
    26     8     3   ar
    27    12    13    1
@<TRIPOS>MOLECULE
*****
 25 27 0 0 0
SMALL
GASTEIGER

@<TRIPOS>ATOM
      1 C          63.8979   85.6597   14.1800 C.ar    1  UNL1        0.1655
      2 N          64.6030   84.6990   13.2691 N.ar    1  UNL1       -0.2239
      3 C          63.8422   83.4063   13.2802 C.ar    1  UNL1        0.0892
      4 C          64.0679   82.1028   12.5732 C.ar    1  UNL1        0.0196
      5 C          63.1182   80.9611   12.7840 C.ar    1  UNL1        0.0054
      6 C          61.9428   81.1229   13.7018 C.ar    1  UNL1        0.0720
      7 C          61.7171   82.4264   14.4088 C.ar    1  UNL1        0.0119
      8 C          62.6669   83.5681   14.1980 C.ar    1  UNL1        0.0497
      9 S          62.7013   84.9608   14.7541 S.2     1  UNL1       -0.0514
     10 C          63.8529   88.1862   13.5761 C.2     1  UNL1        0.2270
     11 O          62.9717   87.8891   12.3990 O.2     1  UNL1       -0.2747
     12 N          64.3159   87.0715   14.4665 N.am    1  UNL1       -0.2641
     13 H          64.8943   87.2665   15.2390 H       1  UNL1        0.1567
     14 C          65.5281   92.8111   11.9017 C.3     1  UNL1        0.0000
     15 C          65.1085   91.9104   13.0254 C.3     1  UNL1        0.0005
     16 C          65.1070   92.4216   14.4356 C.3     1  UNL1        0.0000
     17 C          64.6875   91.5209   15.5594 C.3     1  UNL1        0.0005
     18 C          64.6860   92.0320   16.9696 C.3     1  UNL1        0.0000
     19 C          64.2694   90.1091   15.2729 C.3     1  UNL1        0.0091
     20 C          64.2709   89.5980   13.8626 C.3     1  UNL1        0.0769
     21 C          64.6905   90.4987   12.7389 C.3     1  UNL1        0.0091
     22 C          60.9930   79.9811   13.9125 C.3     1  UNL1        0.4186
     23 F          60.0433   78.8394   14.1233 F       1  UNL1       -0.1659
     24 F          62.0494   79.0183   13.4574 F       1  UNL1       -0.1659
     25 F          59.9367   80.9438   14.3677 F       1  UNL1       -0.1659
@<TRIPOS>BOND
     1    14    15    1
     2    15    16    1
     3    16    17    1
     4    17    18    1
     5    17    19    1
     6    19    20    1
     7    20    10    1
     8    10    11    2
     9    10    12   am
    10    12     1    1
    11     1     2   ar
    12     2     3   ar
    13     3     4   ar
    14     4     5   ar
    15     5     6   ar
    16     6    22    1
    17    22    23    1
    18    22    24    1
    19    22    25    1
    20     6     7   ar
    21     7     8   ar
    22     8     9   ar
    23    20    21    1
    24    21    15    1
    25     9     1   ar
    26     8     3   ar
    27    12    13    1
@<TRIPOS>MOLECULE
*****
 25 27 0 0 0
SMALL
GASTEIGER

@<TRIPOS>ATOM
      1 C          63.2348   87.0673   12.9426 C.ar    1  UNL1        0.1655
      2 N          63.0467   88.2685   12.0640 N.ar    1  UNL1       -0.2239
      3 C          63.7186   89.4357   12.7245 C.ar    1  UNL1        0.0892
      4 C          63.8589   90.8734   12.3205 C.ar    1  UNL1        0.0196
      5 C          64.6026   91.8313   13.2033 C.ar    1  UNL1        0.0054
      6 C          65.2059   91.3515   14.4901 C.ar    1  UNL1        0.0720
      7 C          65.0656   89.9138   14.8941 C.ar    1  UNL1        0.0119
      8 C          64.3219   88.9559   14.0113 C.ar    1  UNL1        0.0497
      9 S          64.0229   87.4921   14.1461 S.2     1  UNL1       -0.0514
     10 C          63.5455   84.4903   13.0539 C.2     1  UNL1        0.2270
     11 O          64.8771   84.6795   13.7180 O.2     1  UNL1       -0.2747
     12 N          62.7244   85.6841   12.6662 N.am    1  UNL1       -0.2641
     13 H          61.8504   85.5599   12.2303 H       1  UNL1        0.1567
     14 C          63.3608   80.2878   10.0035 C.3     1  UNL1        0.0000
     15 C          62.9427   81.0059   11.2523 C.3     1  UNL1        0.0005
     16 C          62.0143   80.3409   12.2246 C.3     1  UNL1        0.0000
     17 C          61.5961   81.0589   13.4735 C.3     1  UNL1        0.0005
     18 C          60.6677   80.3939   14.4459 C.3     1  UNL1        0.0000
     19 C          62.1066   82.4421   13.7499 C.3     1  UNL1        0.0091
     20 C          63.0351   83.1071   12.7775 C.3     1  UNL1        0.0769
     21 C          63.4531   82.3891   11.5287 C.3     1  UNL1        0.0091
     22 C          65.9496   92.3094   15.3728 C.3     1  UNL1        0.4186
     23 F          66.6934   93.2674   16.2555 F       1  UNL1       -0.1659
     24 F          64.8630   92.2052   16.4016 F       1  UNL1       -0.1659
     25 F          67.0363   92.4137   14.3441 F       1  UNL1       -0.1659
@<TRIPOS>BOND
     1    14    15    1
     2    15    16    1
     3    16    17    1
     4    17    18    1
     5    17    19    1
     6    19    20    1
     7    20    10    1
     8    10    11    2
     9    10    12   am
    10    12     1    1
    11     1     2   ar
    12     2     3   ar
    13     3     4   ar
    14     4     5   ar
    15     5     6   ar
    16     6    22    1
    17    22    23    1
    18    22    24    1
    19    22    25    1
    20     6     7   ar
    21     7     8   ar
    22     8     9   ar
    23    20    21    1
    24    21    15    1
    25     9     1   ar
    26     8     3   ar
    27    12    13    1
@<TRIPOS>MOLECULE
*****
 25 27 0 0 0
SMALL
GASTEIGER

@<TRIPOS>ATOM
      1 C          63.4301   86.4357   13.3487 C.ar    1  UNL1        0.1655
      2 N          62.9273   87.4346   12.3491 N.ar    1  UNL1       -0.2239
      3 C          63.4701   88.7812   12.7261 C.ar    1  UNL1        0.0892
      4 C          63.3093   90.1376   12.1062 C.ar    1  UNL1        0.0196
      5 C          63.9868   91.3273   12.7189 C.ar    1  UNL1        0.0054
      6 C          64.8252   91.1606   13.9515 C.ar    1  UNL1        0.0720
      7 C          64.9860   89.8043   14.5714 C.ar    1  UNL1        0.0119
      8 C          64.3085   88.6146   13.9587 C.ar    1  UNL1        0.0497
      9 S          64.2838   87.1650   14.3435 S.2     1  UNL1       -0.0514
     10 C          63.1571   84.1916   12.0683 C.2     1  UNL1        0.2270
     11 O          63.4808   84.8876   10.7795 O.2     1  UNL1       -0.2747
     12 N          63.1318   84.9657   13.3529 N.am    1  UNL1       -0.2641
     13 H          62.9193   84.5089   14.1987 H       1  UNL1        0.1567
     14 C          61.3323   79.9771   14.4988 C.3     1  UNL1        0.0000
     15 C          61.9464   80.6143   13.2877 C.3     1  UNL1        0.0005
     16 C          62.2621   79.7816   12.0808 C.3     1  UNL1        0.0000
     17 C          62.8762   80.4188   10.8696 C.3     1  UNL1        0.0005
     18 C          63.1919   79.5860    9.6626 C.3     1  UNL1        0.0000
     19 C          63.1745   81.8888   10.8654 C.3     1  UNL1        0.0091
     20 C          62.8588   82.7216   12.0725 C.3     1  UNL1        0.0769
     21 C          62.2447   82.0844   13.2836 C.3     1  UNL1        0.0091
     22 C          65.5028   92.3504   14.5642 C.3     1  UNL1        0.4186
     23 F          66.1803   93.5402   15.1769 F       1  UNL1       -0.1659
     24 F          65.1167   91.8667   15.9306 F       1  UNL1       -0.1659
     25 F          65.8889   92.8341   13.1979 F       1  UNL1       -0.1659
@<TRIPOS>BOND
     1    14    15    1
     2    15    16    1
     3    16    17    1
     4    17    18    1
     5    17    19    1
     6    19    20    1
     7    20    10    1
     8    10    11    2
     9    10    12   am
    10    12     1    1
    11     1     2   ar
    12     2     3   ar
    13     3     4   ar
    14     4     5   ar
    15     5     6   ar
    16     6    22    1
    17    22    23    1
    18    22    24    1
    19    22    25    1
    20     6     7   ar
    21     7     8   ar
    22     8     9   ar
    23    20    21    1
    24    21    15    1
    25     9     1   ar
    26     8     3   ar
    27    12    13    1
@<TRIPOS>MOLECULE
*****
 25 27 0 0 0
SMALL
GASTEIGER

@<TRIPOS>ATOM
      1 C          62.7596   89.4053   11.9879 C.ar    1  UNL1        0.1655
      2 N          61.7127   90.1248   11.1902 N.ar    1  UNL1       -0.2239
      3 C          61.1902   89.1783   10.1505 C.ar    1  UNL1        0.0892
      4 C          60.1487   89.3357    9.0826 C.ar    1  UNL1        0.0196
      5 C          59.8312   88.1886    8.1697 C.ar    1  UNL1        0.0054
      6 C          60.5552   86.8841    8.3248 C.ar    1  UNL1        0.0720
      7 C          61.5967   86.7266    9.3927 C.ar    1  UNL1        0.0119
      8 C          61.9142   87.8737   10.3055 C.ar    1  UNL1        0.0497
      9 S          62.8841   88.0140   11.4411 S.2     1  UNL1       -0.0514
     10 C          64.5714   91.0401   12.8792 C.2     1  UNL1        0.2270
     11 O          64.8141   91.5323   11.4831 O.2     1  UNL1       -0.2747
     12 N          63.5442   89.9766   13.1315 N.am    1  UNL1       -0.2641
     13 H          63.3850   89.6536   14.0478 H       1  UNL1        0.1567
     14 C          69.0684   92.7506   14.8415 C.3     1  UNL1        0.0000
     15 C          67.6046   92.4668   15.0040 C.3     1  UNL1        0.0005
     16 C          66.9253   92.7543   16.3101 C.3     1  UNL1        0.0000
     17 C          65.4613   92.4704   16.4726 C.3     1  UNL1        0.0005
     18 C          64.7821   92.7579   17.7787 C.3     1  UNL1        0.0000
     19 C          64.6767   91.8990   15.3289 C.3     1  UNL1        0.0091
     20 C          65.3561   91.6115   14.0228 C.3     1  UNL1        0.0769
     21 C          66.8199   91.8954   13.8604 C.3     1  UNL1        0.0091
     22 C          60.2377   85.7370    7.4118 C.3     1  UNL1        0.4186
     23 F          59.9202   84.5899    6.4989 F       1  UNL1       -0.1659
     24 F          58.7980   86.1570    7.3848 F       1  UNL1       -0.1659
     25 F          61.6774   85.3170    7.4389 F       1  UNL1       -0.1659
@<TRIPOS>BOND
     1    14    15    1
     2    15    16    1
     3    16    17    1
     4    17    18    1
     5    17    19    1
     6    19    20    1
     7    20    10    1
     8    10    11    2
     9    10    12   am
    10    12     1    1
    11     1     2   ar
    12     2     3   ar
    13     3     4   ar
    14     4     5   ar
    15     5     6   ar
    16     6    22    1
    17    22    23    1
    18    22    24    1
    19    22    25    1
    20     6     7   ar
    21     7     8   ar
    22     8     9   ar
    23    20    21    1
    24    21    15    1
    25     9     1   ar
    26     8     3   ar
    27    12    13    1
@<TRIPOS>MOLECULE
*****
 25 27 0 0 0
SMALL
GASTEIGER

@<TRIPOS>ATOM
      1 C          58.5719   95.0588   -1.6721 C.ar    1  UNL1        0.1655
      2 N          58.3546   95.0667   -3.1562 N.ar    1  UNL1       -0.2239
      3 C          56.8893   95.2636   -3.4092 C.ar    1  UNL1        0.0892
      4 C          56.0929   95.3539   -4.6771 C.ar    1  UNL1        0.0196
      5 C          54.6081   95.5581   -4.6172 C.ar    1  UNL1        0.0054
      6 C          53.9197   95.6719   -3.2894 C.ar    1  UNL1        0.0720
      7 C          54.7161   95.5816   -2.0215 C.ar    1  UNL1        0.0119
      8 C          56.2009   95.3774   -2.0814 C.ar    1  UNL1        0.0497
      9 S          57.2408   95.2509   -1.0078 S.2     1  UNL1       -0.0514
     10 C          60.3152   93.5322   -0.4972 C.2     1  UNL1        0.2270
     11 O          59.4243   92.3456   -0.7172 O.2     1  UNL1       -0.2747
     12 N          59.8890   94.8888   -0.9746 N.am    1  UNL1       -0.2641
     13 H          60.4737   95.6676   -0.8303 H       1  UNL1        0.1567
     14 C          65.2893   94.9015    0.1216 C.3     1  UNL1        0.0000
     15 C          64.1193   94.0468    0.5096 C.3     1  UNL1        0.0005
     16 C          64.2664   93.0221    1.5951 C.3     1  UNL1        0.0000
     17 C          63.0964   92.1673    1.9832 C.3     1  UNL1        0.0005
     18 C          63.2435   91.1426    3.0686 C.3     1  UNL1        0.0000
     19 C          61.7793   92.3374    1.2857 C.3     1  UNL1        0.0091
     20 C          61.6322   93.3622    0.2002 C.3     1  UNL1        0.0769
     21 C          62.8022   94.2169   -0.1878 C.3     1  UNL1        0.0091
     22 C          52.4348   95.8761   -3.2295 C.3     1  UNL1        0.4186
     23 F          50.9500   96.0803   -3.1695 F       1  UNL1       -0.1659
     24 F          52.4058   96.1002   -4.7123 F       1  UNL1       -0.1659
     25 F          52.4639   95.6520   -1.7466 F       1  UNL1       -0.1659
@<TRIPOS>BOND
     1    14    15    1
     2    15    16    1
     3    16    17    1
     4    17    18    1
     5    17    19    1
     6    19    20    1
     7    20    10    1
     8    10    11    2
     9    10    12   am
    10    12     1    1
    11     1     2   ar
    12     2     3   ar
    13     3     4   ar
    14     4     5   ar
    15     5     6   ar
    16     6    22    1
    17    22    23    1
    18    22    24    1
    19    22    25    1
    20     6     7   ar
    21     7     8   ar
    22     8     9   ar
    23    20    21    1
    24    21    15    1
    25     9     1   ar
    26     8     3   ar
    27    12    13    1
