@<TRIPOS>MOLECULE
*****
 58 64 0 0 0
SMALL
GASTEIGER

@<TRIPOS>ATOM
      1 N          63.9145   86.2463   15.8682 N.3     1  UNL1       -0.1862
      2 C          64.0622   84.7801   16.1477 C.3     1  UNL1        0.1775
      3 C          63.8832   83.7837   15.0408 C.2     1  UNL1        0.2452
      4 O          64.0309   82.3174   15.3204 O.2     1  UNL1       -0.2732
      5 N          63.5565   84.2537   13.6543 N.am    1  UNL1       -0.2541
      6 C          63.3775   83.2574   12.5474 C.3     1  UNL1        0.1577
      7 C          63.0508   83.7273   11.1609 C.2     1  UNL1        0.2445
      8 O          62.8718   82.7310   10.0540 O.2     1  UNL1       -0.2731
      9 N          62.9031   85.1937   10.8813 N.am    1  UNL1       -0.2705
     10 C          63.0821   86.1900   11.9882 C.3     1  UNL1        0.1359
     11 C          63.4088   85.7200   13.3748 C.3     1  UNL1        0.1908
     12 N          63.5878   86.7163   14.4817 N.am    1  UNL1       -0.1863
     13 C          63.4401   88.1826   14.2021 C.2     1  UNL1        0.3191
     14 O          63.1134   88.6526   12.8156 O.2     1  UNL1       -0.2512
     15 N          63.6191   89.1790   15.3090 N.am    1  UNL1       -0.2836
     16 H          63.8336   88.8705   16.2191 H       1  UNL1        0.1513
     17 C          64.0935   87.2427   16.9751 C.3     1  UNL1        0.1188
     18 C          62.5753   86.8465   19.0459 C.2     1  UNL1       -0.0034
     19 C          62.9215   87.6416   17.8219 C.2     1  UNL1       -0.0071
     20 C          63.5251   81.7911   12.8269 C.3     1  UNL1        0.0556
     21 C          62.3371   80.9881   13.2670 C.ar    1  UNL1       -0.0198
     22 C          62.3789   79.4901   13.2028 C.ar    1  UNL1       -0.0011
     23 C          61.1908   78.6871   13.6428 C.ar    1  UNL1        0.0363
     24 C          59.9609   79.3821   14.1471 C.ar    1  UNL1        0.1337
     25 O          58.7728   78.5791   14.5872 O.3     1  UNL1       -0.5055
     26 C          59.9191   80.8802   14.2113 C.ar    1  UNL1        0.0363
     27 C          61.1071   81.6832   13.7713 C.ar    1  UNL1       -0.0011
     28 H          58.7990   77.6433   14.5470 H       1  UNL1        0.2922
     29 C          62.5764   85.6636    9.4948 C.3     1  UNL1        0.1217
     30 C          62.0016   87.0329    9.2830 C.ar    1  UNL1        0.0135
     31 C          62.4479   88.1755   10.1462 C.ar    1  UNL1       -0.0012
     32 C          61.8731   89.5447    9.9344 C.ar    1  UNL1       -0.0002
     33 C          60.8520   89.7712    8.8593 C.ar    1  UNL1        0.0016
     34 C          60.4057   88.6287    7.9960 C.ar    1  UNL1        0.0214
     35 C          59.4223   88.5488    6.8662 C.ar    1  UNL1        0.0721
     36 C          59.3893   87.1303    6.3798 C.ar    1  UNL1        0.0805
     37 N          60.3523   86.3335    7.2089 N.ar    1  UNL1       -0.3241
     38 C          60.6371   84.8679    7.0646 C.3     1  UNL1        0.1305
     39 C          60.9804   87.2595    8.2078 C.ar    1  UNL1        0.0577
     40 C          58.6137   89.6876    6.3189 C.2     1  UNL1        0.2506
     41 O          57.1818   89.8575    6.7321 O.2     1  UNL1       -0.2699
     42 N          59.2372   90.6565    5.3583 N.am    1  UNL1       -0.2731
     43 C          58.4288   91.7953    4.8110 C.3     1  UNL1        0.1129
     44 C          59.0522   92.7642    3.8505 C.3     1  UNL1        0.1169
     45 N          60.4841   92.5943    3.4373 N.3     1  UNL1       -0.1559
     46 C          61.2926   91.4554    3.9847 C.3     1  UNL1        0.1169
     47 C          60.6691   90.4866    4.9452 C.3     1  UNL1        0.1129
     48 S          61.1076   93.5632    2.4768 S.O2    1  UNL1        0.0458
     49 C          61.7309   94.5321    1.5163 C.3     1  UNL1        0.1960
     50 O          59.8105   94.3117    2.3900 O.2     1  UNL1       -0.1572
     51 O          62.4045   92.8147    2.5636 O.2     1  UNL1       -0.1572
     52 C          63.4715   90.6452   15.0295 C.3     1  UNL1        0.1177
     53 C          64.5331   91.3724   14.2586 C.ar    1  UNL1       -0.0025
     54 C          65.7949   91.8047   14.9448 C.ar    1  UNL1       -0.0026
     55 C          66.8565   92.5319   14.1739 C.ar    1  UNL1       -0.0003
     56 C          66.6562   92.8268   12.7169 C.ar    1  UNL1       -0.0000
     57 C          65.3943   92.3945   12.0307 C.ar    1  UNL1       -0.0003
     58 C          64.3327   91.6673   12.8016 C.ar    1  UNL1       -0.0026
@<TRIPOS>BOND
     1    18    19    2
     2    19    17    1
     3    17     1    1
     4     1     2    1
     5     2     3    1
     6     3     4    2
     7     3     5   am
     8     5     6    1
     9     6    20    1
    10    20    21    1
    11    21    22   ar
    12    22    23   ar
    13    23    24   ar
    14    24    25    1
    15    24    26   ar
    16    26    27   ar
    17     6     7    1
    18     7     8    2
    19     7     9   am
    20     9    29    1
    21    29    30    1
    22    30    31   ar
    23    31    32   ar
    24    32    33   ar
    25    33    34   ar
    26    34    35   ar
    27    35    40    1
    28    40    41    2
    29    40    42   am
    30    42    43    1
    31    43    44    1
    32    44    45    1
    33    45    48    1
    34    48    49    1
    35    48    50    2
    36    48    51    2
    37    45    46    1
    38    46    47    1
    39    35    36   ar
    40    36    37   ar
    41    37    38    1
    42    37    39   ar
    43     9    10    1
    44    11    10    1
    45    11    12    1
    46    12    13   am
    47    13    14    2
    48    13    15   am
    49    15    52    1
    50    52    53    1
    51    53    54   ar
    52    54    55   ar
    53    55    56   ar
    54    56    57   ar
    55    57    58   ar
    56    12     1    1
    57    58    53   ar
    58    11     5    1
    59    27    21   ar
    60    39    30   ar
    61    39    34   ar
    62    47    42    1
    63    25    28    1
    64    15    16    1
@<TRIPOS>MOLECULE
*****
 58 64 0 0 0
SMALL
GASTEIGER

@<TRIPOS>ATOM
      1 N          65.3629   89.3565   14.6639 N.3     1  UNL1       -0.1862
      2 C          65.5555   88.1098   15.4754 C.3     1  UNL1        0.1775
      3 C          64.8307   86.8512   15.1003 C.2     1  UNL1        0.2452
      4 O          65.0234   85.6045   15.9119 O.2     1  UNL1       -0.2732
      5 N          63.9134   86.8394   13.9136 N.am    1  UNL1       -0.2541
      6 C          63.1886   85.5808   13.5385 C.3     1  UNL1        0.1577
      7 C          62.2712   85.5689   12.3518 C.2     1  UNL1        0.2445
      8 O          61.5464   84.3104   11.9767 O.2     1  UNL1       -0.2731
      9 N          62.0786   86.8157   11.5402 N.am    1  UNL1       -0.2705
     10 C          62.8033   88.0742   11.9153 C.3     1  UNL1        0.1359
     11 C          63.7208   88.0860   13.1021 C.3     1  UNL1        0.1908
     12 N          64.4455   89.3446   13.4772 N.am    1  UNL1       -0.1863
     13 C          64.2529   90.5913   12.6656 C.2     1  UNL1        0.3191
     14 O          63.3355   90.5795   11.4789 O.2     1  UNL1       -0.2512
     15 N          64.9777   91.8499   13.0407 N.am    1  UNL1       -0.2836
     16 H          65.5798   91.8577   13.8196 H       1  UNL1        0.1513
     17 C          66.0877   90.6150   15.0390 C.3     1  UNL1        0.1188
     18 C          68.0267   92.2694   14.5355 C.2     1  UNL1       -0.0034
     19 C          67.4596   90.8813   14.4941 C.2     1  UNL1       -0.0071
     20 C          63.3812   84.3341   14.3500 C.3     1  UNL1        0.0556
     21 C          63.1736   82.9891   13.7193 C.ar    1  UNL1       -0.0198
     22 C          63.9727   82.5952   12.5126 C.ar    1  UNL1       -0.0011
     23 C          63.7651   81.2501   11.8819 C.ar    1  UNL1        0.0363
     24 C          62.7584   80.2990   12.4579 C.ar    1  UNL1        0.1337
     25 O          62.5508   78.9540   11.8272 O.3     1  UNL1       -0.5055
     26 C          61.9592   80.6929   13.6646 C.ar    1  UNL1        0.0363
     27 C          62.1668   82.0380   14.2953 C.ar    1  UNL1       -0.0011
     28 H          63.0500   78.7079   11.0734 H       1  UNL1        0.2922
     29 C          61.1612   86.8038   10.3535 C.3     1  UNL1        0.1217
     30 C          60.5614   88.0857    9.8563 C.ar    1  UNL1        0.0135
     31 C          60.3753   89.2405   10.7953 C.ar    1  UNL1       -0.0012
     32 C          59.7756   90.5223   10.2982 C.ar    1  UNL1       -0.0002
     33 C          59.3620   90.6493    8.8619 C.ar    1  UNL1        0.0016
     34 C          59.5482   89.4945    7.9229 C.ar    1  UNL1        0.0214
     35 C          59.2380   89.3263    6.4650 C.ar    1  UNL1        0.0721
     36 C          59.6459   87.9405    6.0612 C.ar    1  UNL1        0.0805
     37 N          60.2083   87.2523    7.2694 N.ar    1  UNL1       -0.3241
     38 C          60.7381   85.8498    7.3186 C.3     1  UNL1        0.1305
     39 C          60.1479   88.2127    8.4201 C.ar    1  UNL1        0.0577
     40 C          58.6270   90.3621    5.5683 C.2     1  UNL1        0.2506
     41 O          57.1474   90.6064    5.6040 O.2     1  UNL1       -0.2699
     42 N          59.4956   91.1535    4.6360 N.am    1  UNL1       -0.2731
     43 C          58.8847   92.1893    3.7394 C.3     1  UNL1        0.1129
     44 C          59.7533   92.9807    2.8071 C.3     1  UNL1        0.1169
     45 N          61.2328   92.7364    2.7715 N.3     1  UNL1       -0.1559
     46 C          61.8437   91.7006    3.6682 C.3     1  UNL1        0.1169
     47 C          60.9751   90.9092    4.6004 C.3     1  UNL1        0.1129
     48 S          62.1014   93.5279    1.8392 S.O2    1  UNL1        0.0458
     49 C          62.9700   94.3192    0.9070 C.3     1  UNL1        0.1960
     50 O          63.3244   92.9647    2.5006 O.2     1  UNL1       -0.1572
     51 O          60.8785   94.0910    1.1778 O.2     1  UNL1       -0.1572
     52 C          64.7851   93.0966   12.2292 C.3     1  UNL1        0.1177
     53 C          65.8239   93.5079   11.2284 C.ar    1  UNL1       -0.0025
     54 C          66.7953   92.4962   10.6968 C.ar    1  UNL1       -0.0026
     55 C          67.8341   92.9076    9.6959 C.ar    1  UNL1       -0.0003
     56 C          67.9014   94.3307    9.2267 C.ar    1  UNL1       -0.0000
     57 C          66.9300   95.3425    9.7583 C.ar    1  UNL1       -0.0003
     58 C          65.8912   94.9311   10.7591 C.ar    1  UNL1       -0.0026
@<TRIPOS>BOND
     1    18    19    2
     2    19    17    1
     3    17     1    1
     4     1     2    1
     5     2     3    1
     6     3     4    2
     7     3     5   am
     8     5     6    1
     9     6    20    1
    10    20    21    1
    11    21    22   ar
    12    22    23   ar
    13    23    24   ar
    14    24    25    1
    15    24    26   ar
    16    26    27   ar
    17     6     7    1
    18     7     8    2
    19     7     9   am
    20     9    29    1
    21    29    30    1
    22    30    31   ar
    23    31    32   ar
    24    32    33   ar
    25    33    34   ar
    26    34    35   ar
    27    35    40    1
    28    40    41    2
    29    40    42   am
    30    42    43    1
    31    43    44    1
    32    44    45    1
    33    45    48    1
    34    48    49    1
    35    48    50    2
    36    48    51    2
    37    45    46    1
    38    46    47    1
    39    35    36   ar
    40    36    37   ar
    41    37    38    1
    42    37    39   ar
    43     9    10    1
    44    11    10    1
    45    11    12    1
    46    12    13   am
    47    13    14    2
    48    13    15   am
    49    15    52    1
    50    52    53    1
    51    53    54   ar
    52    54    55   ar
    53    55    56   ar
    54    56    57   ar
    55    57    58   ar
    56    12     1    1
    57    58    53   ar
    58    11     5    1
    59    27    21   ar
    60    39    30   ar
    61    39    34   ar
    62    47    42    1
    63    25    28    1
    64    15    16    1
