@<TRIPOS>MOLECULE
*****
 34 37 0 0 0
SMALL
GASTEIGER

@<TRIPOS>ATOM
      1 C          62.3116   84.8590   11.7154 C.3     1  UNL1        0.0061
      2 C          63.4069   84.6571   12.7203 C.3     1  UNL1        0.0373
      3 C          64.4437   83.9661   13.5554 C.3     1  UNL1        0.0075
      4 C          65.2683   84.7535   14.5301 C.3     1  UNL1        0.0219
      5 C          65.0561   86.2319   14.6696 C.3     1  UNL1        0.0950
      6 N          64.0193   86.9228   13.8344 N.am    1  UNL1       -0.2639
      7 C          63.8072   88.4012   13.9739 C.2     1  UNL1        0.3042
      8 O          62.7703   89.0921   13.1386 O.2     1  UNL1       -0.2526
      9 N          64.6318   89.1886   14.9485 N.am    1  UNL1       -0.2847
     10 C          63.1947   86.1355   12.8597 C.3     1  UNL1        0.0989
     11 H          65.3123   88.7351   15.4967 H       1  UNL1        0.1513
     12 C          63.2387   83.2488   12.2318 C.ar    1  UNL1       -0.0212
     13 C          62.6138   82.2158   13.1219 C.ar    1  UNL1       -0.0042
     14 C          62.4456   80.8076   12.6334 C.ar    1  UNL1       -0.0003
     15 C          62.9023   80.4324   11.2548 C.ar    1  UNL1       -0.0000
     16 C          63.5272   81.4654   10.3646 C.ar    1  UNL1       -0.0003
     17 C          63.6954   82.8736   10.8531 C.ar    1  UNL1       -0.0042
     18 C          64.4196   90.6669   15.0879 C.3     1  UNL1        0.1177
     19 C          64.9194   91.5998   14.0249 C.ar    1  UNL1       -0.0025
     20 C          66.0742   92.5134   14.3113 C.ar    1  UNL1       -0.0026
     21 C          66.5739   93.4463   13.2483 C.ar    1  UNL1       -0.0003
     22 C          65.9190   93.4656   11.8990 C.ar    1  UNL1       -0.0001
     23 C          64.7642   92.5520   11.6126 C.ar    1  UNL1       -0.0003
     24 C          64.2645   91.6191   12.6757 C.ar    1  UNL1       -0.0026
     25 C          66.4187   94.3985   10.8359 C.ar    1  UNL1        0.0039
     26 C          65.9489   95.8227   10.8067 C.ar    1  UNL1       -0.0001
     27 C          66.4486   96.7555    9.7437 C.ar    1  UNL1       -0.0000
     28 C          67.4181   96.2643    8.7099 C.ar    1  UNL1       -0.0001
     29 C          67.8880   94.8400    8.7392 C.ar    1  UNL1        0.0039
     30 C          67.3883   93.9072    9.8022 C.ar    1  UNL1        0.0714
     31 C          67.8581   92.4829    9.8315 C.3     1  UNL1        0.4186
     32 F          68.3280   91.0587    9.8608 F       1  UNL1       -0.1659
     33 F          69.2811   92.9537    9.8926 F       1  UNL1       -0.1659
     34 F          66.4352   92.0123    9.7705 F       1  UNL1       -0.1659
@<TRIPOS>BOND
     1     1     2    1
     2     2    12    1
     3    12    13   ar
     4    13    14   ar
     5    14    15   ar
     6    15    16   ar
     7    16    17   ar
     8     2     3    1
     9     3     4    1
    10     4     5    1
    11     5     6    1
    12     6     7   am
    13     7     8    2
    14     7     9   am
    15     9    18    1
    16    18    19    1
    17    19    20   ar
    18    20    21   ar
    19    21    22   ar
    20    22    25    1
    21    25    26   ar
    22    26    27   ar
    23    27    28   ar
    24    28    29   ar
    25    29    30   ar
    26    30    31    1
    27    31    32    1
    28    31    33    1
    29    31    34    1
    30    22    23   ar
    31    23    24   ar
    32     6    10    1
    33    10     2    1
    34    17    12   ar
    35    24    19   ar
    36    30    25   ar
    37     9    11    1
@<TRIPOS>MOLECULE
*****
 34 37 0 0 0
SMALL
GASTEIGER

@<TRIPOS>ATOM
      1 C          64.6209   92.3649   10.8213 C.3     1  UNL1        0.0061
      2 C          65.6488   92.3994   11.9132 C.3     1  UNL1        0.0373
      3 C          66.8773   92.7887   12.6807 C.3     1  UNL1        0.0075
      4 C          67.1712   92.1442   14.0029 C.3     1  UNL1        0.0219
      5 C          66.2365   91.1104   14.5576 C.3     1  UNL1        0.0950
      6 N          65.0080   90.7211   13.7901 N.am    1  UNL1       -0.2639
      7 C          64.0733   89.6873   14.3448 C.2     1  UNL1        0.3042
      8 O          62.8448   89.2981   13.5772 O.2     1  UNL1       -0.2526
      9 N          64.3672   89.0429   15.6671 N.am    1  UNL1       -0.2847
     10 C          64.7141   91.3656   12.4679 C.3     1  UNL1        0.0989
     11 H          65.1735   89.2984   16.1708 H       1  UNL1        0.1513
     12 C          66.2265   93.4212   10.9792 C.ar    1  UNL1       -0.0212
     13 C          65.7664   94.8471   11.0501 C.ar    1  UNL1       -0.0042
     14 C          66.3440   95.8688   10.1161 C.ar    1  UNL1       -0.0003
     15 C          67.3819   95.4647    9.1114 C.ar    1  UNL1       -0.0000
     16 C          67.8420   94.0388    9.0405 C.ar    1  UNL1       -0.0003
     17 C          67.2644   93.0171    9.9745 C.ar    1  UNL1       -0.0042
     18 C          63.4325   88.0092   16.2217 C.3     1  UNL1        0.1177
     19 C          63.3099   86.6725   15.5520 C.ar    1  UNL1       -0.0025
     20 C          64.2533   86.2976   14.4477 C.ar    1  UNL1       -0.0026
     21 C          64.1307   84.9609   13.7781 C.ar    1  UNL1       -0.0003
     22 C          63.0648   83.9993   14.2126 C.ar    1  UNL1       -0.0001
     23 C          62.1214   84.3743   15.3170 C.ar    1  UNL1       -0.0003
     24 C          62.2440   85.7109   15.9866 C.ar    1  UNL1       -0.0026
     25 C          62.9422   82.6627   13.5430 C.ar    1  UNL1        0.0039
     26 C          62.7277   81.4278   14.3673 C.ar    1  UNL1       -0.0001
     27 C          62.6051   80.0912   13.6977 C.ar    1  UNL1       -0.0000
     28 C          62.6969   79.9893   12.2040 C.ar    1  UNL1       -0.0001
     29 C          62.9113   81.2241   11.3797 C.ar    1  UNL1        0.0039
     30 C          63.0340   82.5608   12.0494 C.ar    1  UNL1        0.0714
     31 C          63.2484   83.7957   11.2252 C.3     1  UNL1        0.4186
     32 F          63.4628   85.0305   10.4011 F       1  UNL1       -0.1659
     33 F          61.8365   84.2227   11.4978 F       1  UNL1       -0.1659
     34 F          64.6603   83.3685   10.9527 F       1  UNL1       -0.1659
@<TRIPOS>BOND
     1     1     2    1
     2     2    12    1
     3    12    13   ar
     4    13    14   ar
     5    14    15   ar
     6    15    16   ar
     7    16    17   ar
     8     2     3    1
     9     3     4    1
    10     4     5    1
    11     5     6    1
    12     6     7   am
    13     7     8    2
    14     7     9   am
    15     9    18    1
    16    18    19    1
    17    19    20   ar
    18    20    21   ar
    19    21    22   ar
    20    22    25    1
    21    25    26   ar
    22    26    27   ar
    23    27    28   ar
    24    28    29   ar
    25    29    30   ar
    26    30    31    1
    27    31    32    1
    28    31    33    1
    29    31    34    1
    30    22    23   ar
    31    23    24   ar
    32     6    10    1
    33    10     2    1
    34    17    12   ar
    35    24    19   ar
    36    30    25   ar
    37     9    11    1
@<TRIPOS>MOLECULE
*****
 34 37 0 0 0
SMALL
GASTEIGER

@<TRIPOS>ATOM
      1 C          62.4084   84.7356   11.7456 C.3     1  UNL1        0.0061
      2 C          63.3647   84.6321   12.8966 C.3     1  UNL1        0.0373
      3 C          64.2606   84.0237   13.9344 C.3     1  UNL1        0.0075
      4 C          64.9982   84.9050   14.8983 C.3     1  UNL1        0.0219
      5 C          64.8398   86.3949   14.8244 C.3     1  UNL1        0.0950
      6 N          63.9439   87.0033   13.7867 N.am    1  UNL1       -0.2639
      7 C          63.7855   88.4931   13.7128 C.2     1  UNL1        0.3042
      8 O          62.8895   89.1014   12.6749 O.2     1  UNL1       -0.2526
      9 N          64.5231   89.3744   14.6767 N.am    1  UNL1       -0.2847
     10 C          63.2063   86.1219   12.8227 C.3     1  UNL1        0.0989
     11 H          65.1111   88.9751   15.3579 H       1  UNL1        0.1513
     12 C          63.1909   83.1782   12.5708 C.ar    1  UNL1       -0.0212
     13 C          62.8017   82.2095   13.6478 C.ar    1  UNL1       -0.0042
     14 C          62.6280   80.7557   13.3219 C.ar    1  UNL1       -0.0003
     15 C          62.8435   80.2706   11.9189 C.ar    1  UNL1       -0.0000
     16 C          63.2327   81.2393   10.8419 C.ar    1  UNL1       -0.0003
     17 C          63.4064   82.6931   11.1678 C.ar    1  UNL1       -0.0042
     18 C          64.3646   90.8642   14.6027 C.3     1  UNL1        0.1177
     19 C          64.9840   91.6290   13.4706 C.ar    1  UNL1       -0.0025
     20 C          64.2550   91.7595   12.1662 C.ar    1  UNL1       -0.0026
     21 C          64.8745   92.5243   11.0342 C.ar    1  UNL1       -0.0003
     22 C          66.2228   93.1585   11.2066 C.ar    1  UNL1       -0.0001
     23 C          66.9518   93.0278   12.5111 C.ar    1  UNL1       -0.0003
     24 C          66.3323   92.2631   13.6431 C.ar    1  UNL1       -0.0026
     25 C          66.8423   93.9232   10.0746 C.ar    1  UNL1        0.0039
     26 C          67.6823   93.2086    9.0578 C.ar    1  UNL1       -0.0001
     27 C          68.3018   93.9734    7.9259 C.ar    1  UNL1       -0.0000
     28 C          68.0813   95.4526    7.8106 C.ar    1  UNL1       -0.0001
     29 C          67.2412   96.1671    8.8273 C.ar    1  UNL1        0.0039
     30 C          66.6217   95.4024    9.9593 C.ar    1  UNL1        0.0714
     31 C          65.7816   96.1169   10.9761 C.3     1  UNL1        0.4186
     32 F          64.9415   96.8313   11.9928 F       1  UNL1       -0.1659
     33 F          64.5833   95.9763   10.0848 F       1  UNL1       -0.1659
     34 F          66.9799   96.2574   11.8673 F       1  UNL1       -0.1659
@<TRIPOS>BOND
     1     1     2    1
     2     2    12    1
     3    12    13   ar
     4    13    14   ar
     5    14    15   ar
     6    15    16   ar
     7    16    17   ar
     8     2     3    1
     9     3     4    1
    10     4     5    1
    11     5     6    1
    12     6     7   am
    13     7     8    2
    14     7     9   am
    15     9    18    1
    16    18    19    1
    17    19    20   ar
    18    20    21   ar
    19    21    22   ar
    20    22    25    1
    21    25    26   ar
    22    26    27   ar
    23    27    28   ar
    24    28    29   ar
    25    29    30   ar
    26    30    31    1
    27    31    32    1
    28    31    33    1
    29    31    34    1
    30    22    23   ar
    31    23    24   ar
    32     6    10    1
    33    10     2    1
    34    17    12   ar
    35    24    19   ar
    36    30    25   ar
    37     9    11    1
@<TRIPOS>MOLECULE
*****
 34 37 0 0 0
SMALL
GASTEIGER

@<TRIPOS>ATOM
      1 C          62.0141   84.9664   10.8710 C.3     1  UNL1        0.0061
      2 C          62.2891   86.3988   11.2214 C.3     1  UNL1        0.0373
      3 C          62.8339   87.5925   11.9481 C.3     1  UNL1        0.0075
      4 C          62.5063   88.9758   11.4696 C.3     1  UNL1        0.0219
      5 C          61.6338   89.1654   10.2642 C.3     1  UNL1        0.0950
      6 N          61.0890   87.9717    9.5375 N.am    1  UNL1       -0.2639
      7 C          60.2165   88.1613    8.3321 C.2     1  UNL1        0.3042
      8 O          59.6717   86.9676    7.6054 O.2     1  UNL1       -0.2526
      9 N          59.8889   89.5447    7.8535 N.am    1  UNL1       -0.2847
     10 C          61.4166   86.5884   10.0160 C.3     1  UNL1        0.0989
     11 H          60.2464   90.3282    8.3305 H       1  UNL1        0.1513
     12 C          63.0661   85.7117   12.3051 C.ar    1  UNL1       -0.0212
     13 C          63.6484   86.5113   13.4327 C.ar    1  UNL1       -0.0042
     14 C          64.4254   85.8242   14.5163 C.ar    1  UNL1       -0.0003
     15 C          64.6200   84.3375   14.4722 C.ar    1  UNL1       -0.0000
     16 C          64.0377   83.5379   13.3446 C.ar    1  UNL1       -0.0003
     17 C          63.2608   84.2250   12.2610 C.ar    1  UNL1       -0.0042
     18 C          59.0164   89.7342    6.6482 C.3     1  UNL1        0.1177
     19 C          59.4476   90.6583    5.5481 C.ar    1  UNL1       -0.0025
     20 C          60.8998   90.7719    5.1900 C.ar    1  UNL1       -0.0026
     21 C          61.3309   91.6960    4.0900 C.ar    1  UNL1       -0.0003
     22 C          60.3100   92.5065    3.3480 C.ar    1  UNL1       -0.0001
     23 C          58.8577   92.3929    3.7062 C.ar    1  UNL1       -0.0003
     24 C          58.4266   91.4688    4.8062 C.ar    1  UNL1       -0.0026
     25 C          60.7411   93.4307    2.2480 C.ar    1  UNL1        0.0039
     26 C          59.8048   94.4913    1.7495 C.ar    1  UNL1       -0.0001
     27 C          60.2358   95.4154    0.6494 C.ar    1  UNL1       -0.0000
     28 C          61.6031   95.2790    0.0479 C.ar    1  UNL1       -0.0001
     29 C          62.5394   94.2184    0.5464 C.ar    1  UNL1        0.0039
     30 C          62.1083   93.2942    1.6464 C.ar    1  UNL1        0.0714
     31 C          63.0446   92.2336    2.1450 C.3     1  UNL1        0.4186
     32 F          63.9808   91.1730    2.6435 F       1  UNL1       -0.1659
     33 F          63.7600   93.2563    2.9770 F       1  UNL1       -0.1659
     34 F          62.3291   91.2109    1.3129 F       1  UNL1       -0.1659
@<TRIPOS>BOND
     1     1     2    1
     2     2    12    1
     3    12    13   ar
     4    13    14   ar
     5    14    15   ar
     6    15    16   ar
     7    16    17   ar
     8     2     3    1
     9     3     4    1
    10     4     5    1
    11     5     6    1
    12     6     7   am
    13     7     8    2
    14     7     9   am
    15     9    18    1
    16    18    19    1
    17    19    20   ar
    18    20    21   ar
    19    21    22   ar
    20    22    25    1
    21    25    26   ar
    22    26    27   ar
    23    27    28   ar
    24    28    29   ar
    25    29    30   ar
    26    30    31    1
    27    31    32    1
    28    31    33    1
    29    31    34    1
    30    22    23   ar
    31    23    24   ar
    32     6    10    1
    33    10     2    1
    34    17    12   ar
    35    24    19   ar
    36    30    25   ar
    37     9    11    1
@<TRIPOS>MOLECULE
*****
 34 37 0 0 0
SMALL
GASTEIGER

@<TRIPOS>ATOM
      1 C          67.1446   93.5376   12.3331 C.3     1  UNL1        0.0061
      2 C          65.9434   93.1031   11.5466 C.3     1  UNL1        0.0373
      3 C          64.8928   93.0787   10.4763 C.3     1  UNL1        0.0075
      4 C          63.8258   92.0247   10.4966 C.3     1  UNL1        0.0219
      5 C          63.8094   90.9950   11.5873 C.3     1  UNL1        0.0950
      6 N          64.8600   91.0194   12.6576 N.am    1  UNL1       -0.2639
      7 C          64.8437   89.9896   13.7482 C.2     1  UNL1        0.3042
      8 O          65.8943   90.0141   14.8185 O.2     1  UNL1       -0.2526
      9 N          63.7767   88.9356   13.7685 N.am    1  UNL1       -0.2847
     10 C          65.9270   92.0734   12.6373 C.3     1  UNL1        0.0989
     11 H          63.0871   88.9195   13.0660 H       1  UNL1        0.1513
     12 C          66.3770   94.2837   10.7291 C.ar    1  UNL1       -0.0212
     13 C          67.0728   94.0727    9.4172 C.ar    1  UNL1       -0.0042
     14 C          67.5063   95.2532    8.5997 C.ar    1  UNL1       -0.0003
     15 C          67.2440   96.6449    9.0942 C.ar    1  UNL1       -0.0000
     16 C          66.5482   96.8560   10.4061 C.ar    1  UNL1       -0.0003
     17 C          66.1146   95.6754   11.2236 C.ar    1  UNL1       -0.0042
     18 C          63.7604   87.9059   14.8592 C.3     1  UNL1        0.1177
     19 C          63.4752   86.4702   14.5309 C.ar    1  UNL1       -0.0025
     20 C          63.1713   86.0701   13.1176 C.ar    1  UNL1       -0.0026
     21 C          62.8862   84.6345   12.7894 C.ar    1  UNL1       -0.0003
     22 C          62.9050   83.5990   13.8745 C.ar    1  UNL1       -0.0001
     23 C          63.2089   83.9993   15.2879 C.ar    1  UNL1       -0.0003
     24 C          63.4940   85.4349   15.6160 C.ar    1  UNL1       -0.0026
     25 C          62.6199   82.1634   13.5464 C.ar    1  UNL1        0.0039
     26 C          61.7401   81.3486   14.4476 C.ar    1  UNL1       -0.0001
     27 C          61.4550   79.9130   14.1195 C.ar    1  UNL1       -0.0000
     28 C          62.0496   79.2921   12.8903 C.ar    1  UNL1       -0.0001
     29 C          62.9294   80.1069   11.9891 C.ar    1  UNL1        0.0039
     30 C          63.2145   81.5425   12.3172 C.ar    1  UNL1        0.0714
     31 C          64.0943   82.3574   11.4160 C.3     1  UNL1        0.4186
     32 F          64.9740   83.1723   10.5149 F       1  UNL1       -0.1659
     33 F          62.9736   82.4719   10.4256 F       1  UNL1       -0.1659
     34 F          65.2149   82.2429   12.4066 F       1  UNL1       -0.1659
@<TRIPOS>BOND
     1     1     2    1
     2     2    12    1
     3    12    13   ar
     4    13    14   ar
     5    14    15   ar
     6    15    16   ar
     7    16    17   ar
     8     2     3    1
     9     3     4    1
    10     4     5    1
    11     5     6    1
    12     6     7   am
    13     7     8    2
    14     7     9   am
    15     9    18    1
    16    18    19    1
    17    19    20   ar
    18    20    21   ar
    19    21    22   ar
    20    22    25    1
    21    25    26   ar
    22    26    27   ar
    23    27    28   ar
    24    28    29   ar
    25    29    30   ar
    26    30    31    1
    27    31    32    1
    28    31    33    1
    29    31    34    1
    30    22    23   ar
    31    23    24   ar
    32     6    10    1
    33    10     2    1
    34    17    12   ar
    35    24    19   ar
    36    30    25   ar
    37     9    11    1
@<TRIPOS>MOLECULE
*****
 34 37 0 0 0
SMALL
GASTEIGER

@<TRIPOS>ATOM
      1 C          61.6734   85.1970   10.1648 C.3     1  UNL1        0.0061
      2 C          61.9485   86.5874   10.6560 C.3     1  UNL1        0.0373
      3 C          62.4634   87.7016   11.5182 C.3     1  UNL1        0.0075
      4 C          62.1922   89.1280   11.1416 C.3     1  UNL1        0.0219
      5 C          61.4060   89.4401    9.9028 C.3     1  UNL1        0.0950
      6 N          60.8911   88.3259    9.0406 N.am    1  UNL1       -0.2639
      7 C          60.1049   88.6381    7.8018 C.2     1  UNL1        0.3042
      8 O          59.5900   87.5238    6.9397 O.2     1  UNL1       -0.2526
      9 N          59.8337   90.0645    7.4253 N.am    1  UNL1       -0.2847
     10 C          61.1623   86.8995    9.4172 C.3     1  UNL1        0.0989
     11 H          60.1716   90.7958    7.9911 H       1  UNL1        0.1513
     12 C          62.6391   85.7923   11.7242 C.ar    1  UNL1       -0.0212
     13 C          63.3239   86.4958   12.8583 C.ar    1  UNL1       -0.0042
     14 C          64.0145   85.7007   13.9264 C.ar    1  UNL1       -0.0003
     15 C          64.0202   84.2022   13.8604 C.ar    1  UNL1       -0.0000
     16 C          63.3354   83.4987   12.7264 C.ar    1  UNL1       -0.0003
     17 C          62.6449   84.2938   11.6583 C.ar    1  UNL1       -0.0042
     18 C          59.0476   90.3766    6.1865 C.3     1  UNL1        0.1177
     19 C          59.6995   91.1036    5.0478 C.ar    1  UNL1       -0.0025
     20 C          58.9064   92.0770    4.2271 C.ar    1  UNL1       -0.0026
     21 C          59.5583   92.8039    3.0885 C.ar    1  UNL1       -0.0003
     22 C          61.0033   92.5575    2.7705 C.ar    1  UNL1       -0.0001
     23 C          61.7965   91.5840    3.5912 C.ar    1  UNL1       -0.0003
     24 C          61.1445   90.8571    4.7298 C.ar    1  UNL1       -0.0026
     25 C          61.6553   93.2844    1.6319 C.ar    1  UNL1        0.0039
     26 C          63.0606   93.7903    1.7716 C.ar    1  UNL1       -0.0001
     27 C          63.7126   94.5172    0.6330 C.ar    1  UNL1       -0.0000
     28 C          62.9595   94.7383   -0.6453 C.ar    1  UNL1       -0.0001
     29 C          61.5542   94.2324   -0.7849 C.ar    1  UNL1        0.0039
     30 C          60.9023   93.5055    0.3537 C.ar    1  UNL1        0.0714
     31 C          59.4970   92.9996    0.2141 C.3     1  UNL1        0.4186
     32 F          58.0918   92.4937    0.0744 F       1  UNL1       -0.1659
     33 F          60.0215   91.6309   -0.1050 F       1  UNL1       -0.1659
     34 F          58.9726   94.3682    0.5331 F       1  UNL1       -0.1659
@<TRIPOS>BOND
     1     1     2    1
     2     2    12    1
     3    12    13   ar
     4    13    14   ar
     5    14    15   ar
     6    15    16   ar
     7    16    17   ar
     8     2     3    1
     9     3     4    1
    10     4     5    1
    11     5     6    1
    12     6     7   am
    13     7     8    2
    14     7     9   am
    15     9    18    1
    16    18    19    1
    17    19    20   ar
    18    20    21   ar
    19    21    22   ar
    20    22    25    1
    21    25    26   ar
    22    26    27   ar
    23    27    28   ar
    24    28    29   ar
    25    29    30   ar
    26    30    31    1
    27    31    32    1
    28    31    33    1
    29    31    34    1
    30    22    23   ar
    31    23    24   ar
    32     6    10    1
    33    10     2    1
    34    17    12   ar
    35    24    19   ar
    36    30    25   ar
    37     9    11    1
@<TRIPOS>MOLECULE
*****
 34 37 0 0 0
SMALL
GASTEIGER

@<TRIPOS>ATOM
      1 C          58.9412   93.8421    0.6900 C.3     1  UNL1        0.0061
      2 C          60.3305   93.4981    1.1392 C.3     1  UNL1        0.0373
      3 C          61.8281   93.4157    1.1512 C.3     1  UNL1        0.0075
      4 C          62.5309   92.6993    2.2660 C.3     1  UNL1        0.0219
      5 C          61.7360   92.0652    3.3688 C.3     1  UNL1        0.0950
      6 N          60.2384   92.1476    3.3568 N.am    1  UNL1       -0.2639
      7 C          59.4435   91.5135    4.4596 C.2     1  UNL1        0.3042
      8 O          57.9458   91.5959    4.4475 O.2     1  UNL1       -0.2526
      9 N          60.1463   90.7971    5.5744 N.am    1  UNL1       -0.2847
     10 C          59.5356   92.8640    2.2420 C.3     1  UNL1        0.0989
     11 H          61.1293   90.7430    5.5823 H       1  UNL1        0.1513
     12 C          60.6429   94.2516   -0.1197 C.ar    1  UNL1       -0.0212
     13 C          60.8834   95.7313   -0.0679 C.ar    1  UNL1       -0.0042
     14 C          61.1958   96.4848   -1.3267 C.ar    1  UNL1       -0.0003
     15 C          61.2676   95.7586   -2.6373 C.ar    1  UNL1       -0.0000
     16 C          61.0271   94.2790   -2.6890 C.ar    1  UNL1       -0.0003
     17 C          60.7147   93.5255   -1.4302 C.ar    1  UNL1       -0.0042
     18 C          59.3514   90.1631    6.6771 C.3     1  UNL1        0.1177
     19 C          59.9806   89.1176    7.5497 C.ar    1  UNL1       -0.0025
     20 C          60.8647   89.5258    8.6907 C.ar    1  UNL1       -0.0026
     21 C          61.4938   88.4804    9.5632 C.ar    1  UNL1       -0.0003
     22 C          61.2388   87.0268    9.2948 C.ar    1  UNL1       -0.0001
     23 C          60.3547   86.6187    8.1538 C.ar    1  UNL1       -0.0003
     24 C          59.7256   87.6641    7.2813 C.ar    1  UNL1       -0.0026
     25 C          61.8679   85.9814   10.1672 C.ar    1  UNL1        0.0039
     26 C          61.6096   85.9831   11.6449 C.ar    1  UNL1       -0.0001
     27 C          62.2386   84.9376   12.5173 C.ar    1  UNL1       -0.0000
     28 C          63.1260   83.8905   11.9123 C.ar    1  UNL1       -0.0001
     29 C          63.3844   83.8888   10.4347 C.ar    1  UNL1        0.0039
     30 C          62.7553   84.9342    9.5622 C.ar    1  UNL1        0.0714
     31 C          63.0136   84.9326    8.0846 C.3     1  UNL1        0.4186
     32 F          63.2719   84.9310    6.6070 F       1  UNL1       -0.1659
     33 F          63.9308   86.1089    8.2437 F       1  UNL1       -0.1659
     34 F          62.0964   83.7564    7.9256 F       1  UNL1       -0.1659
@<TRIPOS>BOND
     1     1     2    1
     2     2    12    1
     3    12    13   ar
     4    13    14   ar
     5    14    15   ar
     6    15    16   ar
     7    16    17   ar
     8     2     3    1
     9     3     4    1
    10     4     5    1
    11     5     6    1
    12     6     7   am
    13     7     8    2
    14     7     9   am
    15     9    18    1
    16    18    19    1
    17    19    20   ar
    18    20    21   ar
    19    21    22   ar
    20    22    25    1
    21    25    26   ar
    22    26    27   ar
    23    27    28   ar
    24    28    29   ar
    25    29    30   ar
    26    30    31    1
    27    31    32    1
    28    31    33    1
    29    31    34    1
    30    22    23   ar
    31    23    24   ar
    32     6    10    1
    33    10     2    1
    34    17    12   ar
    35    24    19   ar
    36    30    25   ar
    37     9    11    1
@<TRIPOS>MOLECULE
*****
 34 37 0 0 0
SMALL
GASTEIGER

@<TRIPOS>ATOM
      1 C          62.3249   87.1255   11.1843 C.3     1  UNL1        0.0061
      2 C          61.8948   86.2501   10.0447 C.3     1  UNL1        0.0373
      3 C          61.7026   85.0218    9.2055 C.3     1  UNL1        0.0075
      4 C          60.9749   85.1137    7.8971 C.3     1  UNL1        0.0219
      5 C          60.4394   86.4340    7.4278 C.3     1  UNL1        0.0950
      6 N          60.6317   87.6623    8.2670 N.am    1  UNL1       -0.2639
      7 C          60.0962   88.9826    7.7977 C.2     1  UNL1        0.3042
      8 O          60.2885   90.2109    8.6370 O.2     1  UNL1       -0.2526
      9 N          59.3685   89.0745    6.4893 N.am    1  UNL1       -0.2847
     10 C          61.3594   87.5704    9.5754 C.3     1  UNL1        0.0989
     11 H          59.2423   88.2683    5.9385 H       1  UNL1        0.1513
     12 C          62.5797   85.2339   10.9097 C.ar    1  UNL1       -0.0212
     13 C          62.3785   85.2564   12.3960 C.ar    1  UNL1       -0.0042
     14 C          63.0633   84.2402   13.2610 C.ar    1  UNL1       -0.0003
     15 C          63.9494   83.2014   12.6397 C.ar    1  UNL1       -0.0000
     16 C          64.1506   83.1789   11.1535 C.ar    1  UNL1       -0.0003
     17 C          63.4657   84.1951   10.2885 C.ar    1  UNL1       -0.0042
     18 C          58.8331   90.3948    6.0201 C.3     1  UNL1        0.1177
     19 C          59.5643   91.1676    4.9626 C.ar    1  UNL1       -0.0025
     20 C          60.9962   90.8450    4.6531 C.ar    1  UNL1       -0.0026
     21 C          61.7272   91.6177    3.5955 C.ar    1  UNL1       -0.0003
     22 C          61.0266   92.7129    2.8475 C.ar    1  UNL1       -0.0001
     23 C          59.5946   93.0354    3.1571 C.ar    1  UNL1       -0.0003
     24 C          58.8636   92.2627    4.2146 C.ar    1  UNL1       -0.0026
     25 C          61.7576   93.4857    1.7900 C.ar    1  UNL1        0.0039
     26 C          62.9041   94.3755    2.1691 C.ar    1  UNL1       -0.0001
     27 C          63.6352   95.1483    1.1116 C.ar    1  UNL1       -0.0000
     28 C          63.2199   95.0312   -0.3249 C.ar    1  UNL1       -0.0001
     29 C          62.0734   94.1413   -0.7041 C.ar    1  UNL1        0.0039
     30 C          61.3423   93.3686    0.3534 C.ar    1  UNL1        0.0714
     31 C          60.1958   92.4787   -0.0256 C.3     1  UNL1        0.4186
     32 F          59.0493   91.5889   -0.4047 F       1  UNL1       -0.1659
     33 F          59.2740   93.6620   -0.0153 F       1  UNL1       -0.1659
     34 F          61.1176   91.2954   -0.0360 F       1  UNL1       -0.1659
@<TRIPOS>BOND
     1     1     2    1
     2     2    12    1
     3    12    13   ar
     4    13    14   ar
     5    14    15   ar
     6    15    16   ar
     7    16    17   ar
     8     2     3    1
     9     3     4    1
    10     4     5    1
    11     5     6    1
    12     6     7   am
    13     7     8    2
    14     7     9   am
    15     9    18    1
    16    18    19    1
    17    19    20   ar
    18    20    21   ar
    19    21    22   ar
    20    22    25    1
    21    25    26   ar
    22    26    27   ar
    23    27    28   ar
    24    28    29   ar
    25    29    30   ar
    26    30    31    1
    27    31    32    1
    28    31    33    1
    29    31    34    1
    30    22    23   ar
    31    23    24   ar
    32     6    10    1
    33    10     2    1
    34    17    12   ar
    35    24    19   ar
    36    30    25   ar
    37     9    11    1
@<TRIPOS>MOLECULE
*****
 34 37 0 0 0
SMALL
GASTEIGER

@<TRIPOS>ATOM
      1 C          62.0574   86.2376   11.7526 C.3     1  UNL1        0.0061
      2 C          62.1136   85.5965   10.3976 C.3     1  UNL1        0.0373
      3 C          62.4345   84.6031    9.3206 C.3     1  UNL1        0.0075
      4 C          61.9737   84.8467    7.9141 C.3     1  UNL1        0.0219
      5 C          61.1918   86.0838    7.5847 C.3     1  UNL1        0.0950
      6 N          60.8709   87.0771    8.6617 N.am    1  UNL1       -0.2639
      7 C          60.0891   88.3142    8.3323 C.2     1  UNL1        0.3042
      8 O          59.7682   89.3075    9.4095 O.2     1  UNL1       -0.2526
      9 N          59.6282   88.5578    6.9258 N.am    1  UNL1       -0.2847
     10 C          61.3318   86.8335   10.0682 C.3     1  UNL1        0.0989
     11 H          59.8388   87.9058    6.2189 H       1  UNL1        0.1513
     12 C          62.8759   84.5821   11.1976 C.ar    1  UNL1       -0.0212
     13 C          62.7585   84.5640   12.6929 C.ar    1  UNL1       -0.0042
     14 C          63.5208   83.5497   13.4928 C.ar    1  UNL1       -0.0003
     15 C          64.4005   82.5533   12.7975 C.ar    1  UNL1       -0.0000
     16 C          64.5179   82.5714   11.3022 C.ar    1  UNL1       -0.0003
     17 C          63.7556   83.5857   10.5023 C.ar    1  UNL1       -0.0042
     18 C          58.8464   89.7949    6.5965 C.3     1  UNL1        0.1177
     19 C          59.3301   90.7241    5.5228 C.ar    1  UNL1       -0.0025
     20 C          58.3483   91.5592    4.7555 C.ar    1  UNL1       -0.0026
     21 C          58.8321   92.4884    3.6819 C.ar    1  UNL1       -0.0003
     22 C          60.2974   92.5825    3.3756 C.ar    1  UNL1       -0.0001
     23 C          61.2792   91.7473    4.1430 C.ar    1  UNL1       -0.0003
     24 C          60.7954   90.8182    5.2166 C.ar    1  UNL1       -0.0026
     25 C          60.7812   93.5116    2.3020 C.ar    1  UNL1        0.0039
     26 C          59.8985   94.6244    1.8196 C.ar    1  UNL1       -0.0001
     27 C          60.3823   95.5536    0.7460 C.ar    1  UNL1       -0.0000
     28 C          61.7485   95.3701    0.1548 C.ar    1  UNL1       -0.0001
     29 C          62.6312   94.2573    0.6372 C.ar    1  UNL1        0.0039
     30 C          62.1475   93.3281    1.7108 C.ar    1  UNL1        0.0714
     31 C          63.0301   92.2153    2.1933 C.3     1  UNL1        0.4186
     32 F          63.9126   91.1025    2.6757 F       1  UNL1       -0.1659
     33 F          62.2856   91.2473    1.3222 F       1  UNL1       -0.1659
     34 F          63.7745   93.1833    3.0643 F       1  UNL1       -0.1659
@<TRIPOS>BOND
     1     1     2    1
     2     2    12    1
     3    12    13   ar
     4    13    14   ar
     5    14    15   ar
     6    15    16   ar
     7    16    17   ar
     8     2     3    1
     9     3     4    1
    10     4     5    1
    11     5     6    1
    12     6     7   am
    13     7     8    2
    14     7     9   am
    15     9    18    1
    16    18    19    1
    17    19    20   ar
    18    20    21   ar
    19    21    22   ar
    20    22    25    1
    21    25    26   ar
    22    26    27   ar
    23    27    28   ar
    24    28    29   ar
    25    29    30   ar
    26    30    31    1
    27    31    32    1
    28    31    33    1
    29    31    34    1
    30    22    23   ar
    31    23    24   ar
    32     6    10    1
    33    10     2    1
    34    17    12   ar
    35    24    19   ar
    36    30    25   ar
    37     9    11    1
