@<TRIPOS>MOLECULE
*****
 42 45 0 0 0
SMALL
GASTEIGER

@<TRIPOS>ATOM
      1 C          65.4109   90.7470   14.0854 C.ar    1  UNL1        0.0053
      2 C          65.0757   89.4961   14.8421 C.ar    1  UNL1        0.0033
      3 C          64.1343   88.4902   14.2488 C.ar    1  UNL1        0.0382
      4 C          63.5282   88.7354   12.8989 C.ar    1  UNL1        0.1529
      5 C          63.8634   89.9864   12.1422 C.ar    1  UNL1        0.0882
      6 C          64.8047   90.9922   12.7354 C.ar    1  UNL1        0.0181
      7 N          63.2572   90.2315   10.7922 N.am    1  UNL1       -0.2512
      8 C          62.3158   89.2257   10.1989 C.2     1  UNL1        0.2698
      9 O          61.7096   89.4708    8.8489 O.2     1  UNL1       -0.2704
     10 C          61.9805   87.9746   10.9556 C.3     1  UNL1        0.2199
     11 C          61.3600   86.6488   11.2830 C.3     1  UNL1        0.0579
     12 O          62.5867   87.7294   12.3056 O.3     1  UNL1       -0.4686
     13 C          67.6902   91.9933   14.0444 C.ar    1  UNL1        0.0645
     14 N          68.6316   92.9992   14.6376 N.ar    1  UNL1       -0.2183
     15 C          68.2352   93.7648   15.8652 C.ar    1  UNL1        0.2145
     16 N          69.1766   94.7706   16.4584 N.pl3   1  UNL1       -0.3274
     17 N          66.8973   93.5244   16.4995 N.ar    1  UNL1       -0.1995
     18 C          65.9559   92.5185   15.9062 C.ar    1  UNL1        0.1293
     19 N          64.6180   92.2781   16.5405 N.pl3   1  UNL1       -0.3425
     20 C          66.3524   91.7530   14.6787 C.ar    1  UNL1        0.0449
     21 H          70.0547   94.9284   16.0421 H       1  UNL1        0.1452
     22 H          68.9164   95.2731   17.2640 H       1  UNL1        0.1452
     23 H          64.3578   92.7805   17.3461 H       1  UNL1        0.1437
     24 H          64.0001   91.6179   16.1511 H       1  UNL1        0.1437
     25 C          68.3833   91.9582   11.5407 C.3     1  UNL1        0.0067
     26 C          68.0867   91.2278   12.8168 C.3     1  UNL1        0.0460
     27 C          61.1588   87.7593    9.7193 C.ar    1  UNL1        0.0264
     28 C          61.2493   86.4599    8.9755 C.ar    1  UNL1        0.0293
     29 C          60.4275   86.2446    7.7392 C.ar    1  UNL1        0.1422
     30 F          60.5180   84.9451    6.9954 F       1  UNL1       -0.2041
     31 C          59.5154   87.3287    7.2467 C.ar    1  UNL1        0.0592
     32 C          59.4250   88.6281    7.9905 C.ar    1  UNL1        0.1422
     33 F          58.5128   89.7123    7.4980 F       1  UNL1       -0.2041
     34 C          60.2467   88.8435    9.2268 C.ar    1  UNL1        0.0293
     35 C          63.5924   91.4825   10.0355 C.3     1  UNL1        0.1197
     36 C          64.2884   92.6153   10.7299 C.3     1  UNL1        0.1145
     37 N          65.3771   93.3705   10.0267 N.am    1  UNL1       -0.2689
     38 C          66.2604   94.3054   10.7985 C.2     1  UNL1        0.4018
     39 O          66.0551   94.4851   12.2735 O.2     1  UNL1       -0.2264
     40 H          65.5119   93.2526    9.0586 H       1  UNL1        0.1528
     41 O          67.3491   95.0607   10.0954 O.3     1  UNL1       -0.4306
     42 C          67.5794   94.8520    8.6279 C.3     1  UNL1        0.2573
@<TRIPOS>BOND
     1    25    26    1
     2    26    13    1
     3    13    14   ar
     4    14    15   ar
     5    15    16    1
     6    15    17   ar
     7    17    18   ar
     8    18    19    1
     9    18    20   ar
    10    20     1    1
    11     1     2   ar
    12     2     3   ar
    13     3     4   ar
    14     4     5   ar
    15     5     6   ar
    16     5     7    1
    17     7    35    1
    18    35    36    1
    19    36    37    1
    20    37    38   am
    21    38    39    2
    22    38    41    1
    23    41    42    1
    24     7     8   am
    25     8     9    2
    26     8    10    1
    27    10    11    1
    28    10    27    1
    29    27    28   ar
    30    28    29   ar
    31    29    30    1
    32    29    31   ar
    33    31    32   ar
    34    32    33    1
    35    32    34   ar
    36    10    12    1
    37    20    13   ar
    38     6     1   ar
    39    34    27   ar
    40    12     4    1
    41    16    21    1
    42    16    22    1
    43    19    23    1
    44    19    24    1
    45    37    40    1
@<TRIPOS>MOLECULE
*****
 42 45 0 0 0
SMALL
GASTEIGER

@<TRIPOS>ATOM
      1 C          64.1987   89.3171   13.1864 C.ar    1  UNL1        0.0053
      2 C          64.5103   89.1004   14.6376 C.ar    1  UNL1        0.0033
      3 C          64.2862   87.7541   15.2599 C.ar    1  UNL1        0.0382
      4 C          63.7505   86.6245   14.4310 C.ar    1  UNL1        0.1529
      5 C          63.4388   86.8412   12.9799 C.ar    1  UNL1        0.0882
      6 C          63.6629   88.1875   12.3576 C.ar    1  UNL1        0.0181
      7 N          62.9031   85.7116   12.1510 N.am    1  UNL1       -0.2512
      8 C          62.6790   84.3653   12.7734 C.2     1  UNL1        0.2698
      9 O          62.1432   83.2357   11.9445 O.2     1  UNL1       -0.2704
     10 C          62.9906   84.1486   14.2246 C.3     1  UNL1        0.2199
     11 C          63.1335   83.4561   15.5475 C.3     1  UNL1        0.0579
     12 O          63.5264   85.2782   15.0534 O.3     1  UNL1       -0.4686
     13 C          65.2856   91.6758   13.2572 C.ar    1  UNL1        0.0645
     14 N          65.5097   93.0221   12.6349 N.ar    1  UNL1       -0.2183
     15 C          64.8710   93.3559   11.3193 C.ar    1  UNL1        0.2145
     16 N          65.0951   94.7022   10.6970 N.pl3   1  UNL1       -0.3274
     17 N          64.0081   92.3435   10.6261 N.ar    1  UNL1       -0.1995
     18 C          63.7840   90.9972   11.2485 C.ar    1  UNL1        0.1293
     19 N          62.9212   89.9847   10.5554 N.pl3   1  UNL1       -0.3425
     20 C          64.4228   90.6634   12.5640 C.ar    1  UNL1        0.0449
     21 H          65.6614   95.3667   11.1519 H       1  UNL1        0.1452
     22 H          64.6759   94.9213    9.8336 H       1  UNL1        0.1452
     23 H          62.5020   90.2038    9.6919 H       1  UNL1        0.1437
     24 H          62.7741   89.1011   10.9638 H       1  UNL1        0.1437
     25 C          67.3803   91.6272   14.7933 C.3     1  UNL1        0.0067
     26 C          65.9243   91.3419   14.5727 C.3     1  UNL1        0.0460
     27 C          62.5045   82.7786   13.8552 C.ar    1  UNL1        0.0264
     28 C          63.2535   81.9649   12.8418 C.ar    1  UNL1        0.0293
     29 C          62.7673   80.5948   12.4724 C.ar    1  UNL1        0.1422
     30 F          63.5164   79.7812   11.4589 F       1  UNL1       -0.2041
     31 C          61.5322   80.0383   13.1163 C.ar    1  UNL1        0.0592
     32 C          60.7833   80.8519   14.1297 C.ar    1  UNL1        0.1422
     33 F          59.5481   80.2954   14.7737 F       1  UNL1       -0.2041
     34 C          61.2693   82.2220   14.4992 C.ar    1  UNL1        0.0293
     35 C          62.5914   85.9283   10.6999 C.3     1  UNL1        0.1197
     36 C          61.2236   86.3846   10.2865 C.3     1  UNL1        0.1145
     37 N          60.3901   87.2035   11.2272 N.am    1  UNL1       -0.2689
     38 C          59.9432   88.5791   10.8295 C.2     1  UNL1        0.4018
     39 O          60.3297   89.1357    9.4913 O.2     1  UNL1       -0.2264
     40 H          60.1364   86.8382   12.1055 H       1  UNL1        0.1528
     41 O          59.1097   89.3980   11.7701 O.3     1  UNL1       -0.4306
     42 C          59.0629   90.8903   11.6254 C.3     1  UNL1        0.2573
@<TRIPOS>BOND
     1    25    26    1
     2    26    13    1
     3    13    14   ar
     4    14    15   ar
     5    15    16    1
     6    15    17   ar
     7    17    18   ar
     8    18    19    1
     9    18    20   ar
    10    20     1    1
    11     1     2   ar
    12     2     3   ar
    13     3     4   ar
    14     4     5   ar
    15     5     6   ar
    16     5     7    1
    17     7    35    1
    18    35    36    1
    19    36    37    1
    20    37    38   am
    21    38    39    2
    22    38    41    1
    23    41    42    1
    24     7     8   am
    25     8     9    2
    26     8    10    1
    27    10    11    1
    28    10    27    1
    29    27    28   ar
    30    28    29   ar
    31    29    30    1
    32    29    31   ar
    33    31    32   ar
    34    32    33    1
    35    32    34   ar
    36    10    12    1
    37    20    13   ar
    38     6     1   ar
    39    34    27   ar
    40    12     4    1
    41    16    21    1
    42    16    22    1
    43    19    23    1
    44    19    24    1
    45    37    40    1
@<TRIPOS>MOLECULE
*****
 42 45 0 0 0
SMALL
GASTEIGER

@<TRIPOS>ATOM
      1 C          64.1492   89.4054   13.1399 C.ar    1  UNL1        0.0053
      2 C          64.4046   89.2138   14.6054 C.ar    1  UNL1        0.0033
      3 C          64.1671   87.8753   15.2394 C.ar    1  UNL1        0.0382
      4 C          63.6743   86.7284   14.4077 C.ar    1  UNL1        0.1529
      5 C          63.4189   86.9200   12.9421 C.ar    1  UNL1        0.0882
      6 C          63.6563   88.2585   12.3082 C.ar    1  UNL1        0.0181
      7 N          62.9260   85.7731   12.1104 N.am    1  UNL1       -0.2512
      8 C          62.6885   84.4345   12.7443 C.2     1  UNL1        0.2698
      9 O          62.1957   83.2876   11.9127 O.2     1  UNL1       -0.2704
     10 C          62.9439   84.2429   14.2100 C.3     1  UNL1        0.2199
     11 C          63.0397   83.5720   15.5482 C.3     1  UNL1        0.0579
     12 O          63.4368   85.3898   15.0417 O.3     1  UNL1       -0.4686
     13 C          63.7211   91.0869   11.2061 C.ar    1  UNL1        0.0645
     14 N          63.9586   92.4254   10.5720 N.ar    1  UNL1       -0.2183
     15 C          64.8616   93.4211   11.2379 C.ar    1  UNL1        0.2145
     16 N          65.0990   94.7596   10.6039 N.pl3   1  UNL1       -0.3274
     17 N          65.5271   93.0782   12.5377 N.ar    1  UNL1       -0.1995
     18 C          65.2896   91.7396   13.1717 C.ar    1  UNL1        0.1293
     19 N          65.9552   91.3967   14.4715 N.pl3   1  UNL1       -0.3425
     20 C          64.3867   90.7440   12.5059 C.ar    1  UNL1        0.0449
     21 H          64.6622   94.9846    9.7507 H       1  UNL1        0.1452
     22 H          65.6917   95.4131   11.0408 H       1  UNL1        0.1452
     23 H          66.5479   92.0502   14.9084 H       1  UNL1        0.1437
     24 H          65.7993   90.5182   14.8876 H       1  UNL1        0.1437
     25 C          61.3365   90.3238   10.5121 C.3     1  UNL1        0.0067
     26 C          62.8181   90.0912   10.5402 C.3     1  UNL1        0.0460
     27 C          62.4843   82.8630   13.8431 C.ar    1  UNL1        0.0264
     28 C          61.2572   82.2860   14.4842 C.ar    1  UNL1        0.0293
     29 C          60.7976   80.9060   14.1172 C.ar    1  UNL1        0.1422
     30 F          59.5703   80.3290   14.7584 F       1  UNL1       -0.2041
     31 C          61.5651   80.1032   13.1092 C.ar    1  UNL1        0.0592
     32 C          62.7923   80.6802   12.4681 C.ar    1  UNL1        0.1422
     33 F          63.5599   79.8773   11.4600 F       1  UNL1       -0.2041
     34 C          63.2519   82.0601   12.8350 C.ar    1  UNL1        0.0293
     35 C          62.6706   85.9647   10.6448 C.3     1  UNL1        0.1197
     36 C          61.2944   85.7485   10.0888 C.3     1  UNL1        0.1145
     37 N          60.4616   86.9238    9.6698 N.am    1  UNL1       -0.2689
     38 C          59.7660   86.9143    8.3409 C.2     1  UNL1        0.4018
     39 O          59.9031   85.7297    7.4310 O.2     1  UNL1       -0.2264
     40 H          60.3717   87.7012   10.2670 H       1  UNL1        0.1528
     41 O          58.9333   88.0895    7.9219 O.3     1  UNL1       -0.4306
     42 C          59.5359   89.1726    7.0771 C.3     1  UNL1        0.2573
@<TRIPOS>BOND
     1    25    26    1
     2    26    13    1
     3    13    14   ar
     4    14    15   ar
     5    15    16    1
     6    15    17   ar
     7    17    18   ar
     8    18    19    1
     9    18    20   ar
    10    20     1    1
    11     1     2   ar
    12     2     3   ar
    13     3     4   ar
    14     4     5   ar
    15     5     6   ar
    16     5     7    1
    17     7    35    1
    18    35    36    1
    19    36    37    1
    20    37    38   am
    21    38    39    2
    22    38    41    1
    23    41    42    1
    24     7     8   am
    25     8     9    2
    26     8    10    1
    27    10    11    1
    28    10    27    1
    29    27    28   ar
    30    28    29   ar
    31    29    30    1
    32    29    31   ar
    33    31    32   ar
    34    32    33    1
    35    32    34   ar
    36    10    12    1
    37    20    13   ar
    38     6     1   ar
    39    34    27   ar
    40    12     4    1
    41    16    21    1
    42    16    22    1
    43    19    23    1
    44    19    24    1
    45    37    40    1
@<TRIPOS>MOLECULE
*****
 42 45 0 0 0
SMALL
GASTEIGER

@<TRIPOS>ATOM
      1 C          65.3815   90.7288   14.0738 C.ar    1  UNL1        0.0053
      2 C          65.0926   89.4462   14.7958 C.ar    1  UNL1        0.0033
      3 C          64.1646   88.4363   14.1885 C.ar    1  UNL1        0.0382
      4 C          63.5254   88.7091   12.8592 C.ar    1  UNL1        0.1529
      5 C          63.8142   89.9918   12.1373 C.ar    1  UNL1        0.0882
      6 C          64.7422   91.0016   12.7445 C.ar    1  UNL1        0.0181
      7 N          63.1750   90.2646   10.8080 N.am    1  UNL1       -0.2512
      8 C          62.2469   89.2547   10.2007 C.2     1  UNL1        0.2698
      9 O          61.6077   89.5275    8.8714 O.2     1  UNL1       -0.2704
     10 C          61.9581   87.9719   10.9227 C.3     1  UNL1        0.2199
     11 C          61.3772   86.6210   11.2188 C.3     1  UNL1        0.0579
     12 O          62.5973   87.6991   12.2520 O.3     1  UNL1       -0.4686
     13 C          65.9722   92.3700   15.9994 C.ar    1  UNL1        0.0645
     14 N          66.9003   93.3799   16.6067 N.ar    1  UNL1       -0.2183
     15 C          68.1657   93.7587   15.8957 C.ar    1  UNL1        0.2145
     16 N          69.0937   94.7686   16.5030 N.pl3   1  UNL1       -0.3274
     17 N          68.5030   93.1274   14.5774 N.ar    1  UNL1       -0.1995
     18 C          67.5749   92.1175   13.9701 C.ar    1  UNL1        0.1293
     19 N          67.9122   91.4863   12.6519 N.pl3   1  UNL1       -0.3425
     20 C          66.3096   91.7388   14.6811 C.ar    1  UNL1        0.0449
     21 H          68.8723   95.1828   17.3682 H       1  UNL1        0.1452
     22 H          69.9241   95.0171   16.0363 H       1  UNL1        0.1452
     23 H          68.7427   91.7348   12.1853 H       1  UNL1        0.1437
     24 H          67.3031   90.8234   12.2533 H       1  UNL1        0.1437
     25 C          63.7424   93.0555   17.1431 C.3     1  UNL1        0.0067
     26 C          64.7068   91.9913   16.7103 C.3     1  UNL1        0.0460
     27 C          61.1171   87.7756    9.6963 C.ar    1  UNL1        0.0264
     28 C          60.2458   88.8902    9.1980 C.ar    1  UNL1        0.0293
     29 C          59.4048   88.6939    7.9715 C.ar    1  UNL1        0.1422
     30 F          58.5334   89.8086    7.4733 F       1  UNL1       -0.2041
     31 C          59.4351   87.3829    7.2433 C.ar    1  UNL1        0.0592
     32 C          60.3065   86.2683    7.7416 C.ar    1  UNL1        0.1422
     33 F          60.3368   84.9572    7.0133 F       1  UNL1       -0.2041
     34 C          61.1475   86.4645    8.9680 C.ar    1  UNL1        0.0293
     35 C          63.4638   91.5472   10.0860 C.3     1  UNL1        0.1197
     36 C          64.8131   92.1905   10.2105 C.3     1  UNL1        0.1145
     37 N          64.9205   93.6507   10.5368 N.am    1  UNL1       -0.2689
     38 C          66.2676   94.2730   10.7563 C.2     1  UNL1        0.4018
     39 O          67.5072   93.4351   10.6495 O.2     1  UNL1       -0.2264
     40 H          64.1070   94.2006   10.6069 H       1  UNL1        0.1528
     41 O          66.3751   95.7331   11.0826 O.3     1  UNL1       -0.4306
     42 C          66.7933   96.7095   10.0234 C.3     1  UNL1        0.2573
@<TRIPOS>BOND
     1    25    26    1
     2    26    13    1
     3    13    14   ar
     4    14    15   ar
     5    15    16    1
     6    15    17   ar
     7    17    18   ar
     8    18    19    1
     9    18    20   ar
    10    20     1    1
    11     1     2   ar
    12     2     3   ar
    13     3     4   ar
    14     4     5   ar
    15     5     6   ar
    16     5     7    1
    17     7    35    1
    18    35    36    1
    19    36    37    1
    20    37    38   am
    21    38    39    2
    22    38    41    1
    23    41    42    1
    24     7     8   am
    25     8     9    2
    26     8    10    1
    27    10    11    1
    28    10    27    1
    29    27    28   ar
    30    28    29   ar
    31    29    30    1
    32    29    31   ar
    33    31    32   ar
    34    32    33    1
    35    32    34   ar
    36    10    12    1
    37    20    13   ar
    38     6     1   ar
    39    34    27   ar
    40    12     4    1
    41    16    21    1
    42    16    22    1
    43    19    23    1
    44    19    24    1
    45    37    40    1
@<TRIPOS>MOLECULE
*****
 42 45 0 0 0
SMALL
GASTEIGER

@<TRIPOS>ATOM
      1 C          64.5946   90.1116   13.6437 C.ar    1  UNL1        0.0053
      2 C          63.5928   90.4162   12.5696 C.ar    1  UNL1        0.0033
      3 C          62.8545   89.2988   11.8940 C.ar    1  UNL1        0.0382
      4 C          63.1180   87.8769   12.2926 C.ar    1  UNL1        0.1529
      5 C          64.1197   87.5724   13.3667 C.ar    1  UNL1        0.0882
      6 C          64.8580   88.6898   14.0422 C.ar    1  UNL1        0.0181
      7 N          64.3832   86.1505   13.7653 N.am    1  UNL1       -0.2512
      8 C          63.6449   85.0332   13.0898 C.2     1  UNL1        0.2698
      9 O          63.9083   83.6113   13.4883 O.2     1  UNL1       -0.2704
     10 C          62.6431   85.3376   12.0156 C.3     1  UNL1        0.2199
     11 C          61.6079   85.1224   10.9516 C.3     1  UNL1        0.0579
     12 O          62.3796   86.7595   11.6170 O.3     1  UNL1       -0.4686
     13 C          66.4601   91.9196   13.6104 C.ar    1  UNL1        0.0645
     14 N          67.1985   93.0369   14.2859 N.ar    1  UNL1       -0.2183
     15 C          66.8096   93.4637   15.6704 C.ar    1  UNL1        0.2145
     16 N          67.5480   94.5811   16.3459 N.pl3   1  UNL1       -0.3274
     17 N          65.6824   92.7732   16.3792 N.ar    1  UNL1       -0.1995
     18 C          64.9440   91.6558   15.7036 C.ar    1  UNL1        0.1293
     19 N          63.8168   90.9653   16.4125 N.pl3   1  UNL1       -0.3425
     20 C          65.3329   91.2290   14.3193 C.ar    1  UNL1        0.0449
     21 H          68.2878   95.0343   15.8806 H       1  UNL1        0.1452
     22 H          67.2927   94.8612   17.2545 H       1  UNL1        0.1452
     23 H          63.5616   91.2454   17.3212 H       1  UNL1        0.1437
     24 H          63.3322   90.2319   15.9691 H       1  UNL1        0.1437
     25 C          66.6376   92.4219   11.0675 C.3     1  UNL1        0.0067
     26 C          66.8490   91.4927   12.2259 C.3     1  UNL1        0.0460
     27 C          62.5470   83.8411   12.0446 C.ar    1  UNL1        0.0264
     28 C          63.0876   83.0325   10.9027 C.ar    1  UNL1        0.0293
     29 C          62.9916   81.5358   10.9318 C.ar    1  UNL1        0.1422
     30 F          63.5322   80.7273    9.7898 F       1  UNL1       -0.2041
     31 C          62.3550   80.8477   12.1027 C.ar    1  UNL1        0.0592
     32 C          61.8144   81.6563   13.2446 C.ar    1  UNL1        0.1422
     33 F          61.1777   80.9681   14.4156 F       1  UNL1       -0.2041
     34 C          61.9104   83.1529   13.2156 C.ar    1  UNL1        0.0293
     35 C          65.3849   85.8460   14.8394 C.3     1  UNL1        0.1197
     36 C          64.9801   85.0344   16.0342 C.3     1  UNL1        0.1145
     37 N          64.1756   85.6654   17.1318 N.am    1  UNL1       -0.2689
     38 C          62.6797   85.7139   17.0324 C.2     1  UNL1        0.4018
     39 O          61.9883   85.1314   15.8353 O.2     1  UNL1       -0.2264
     40 H          64.6294   86.0477   17.9174 H       1  UNL1        0.1528
     41 O          61.8751   86.3448   18.1299 O.3     1  UNL1       -0.4306
     42 C          62.5624   87.1303   19.2072 C.3     1  UNL1        0.2573
@<TRIPOS>BOND
     1    25    26    1
     2    26    13    1
     3    13    14   ar
     4    14    15   ar
     5    15    16    1
     6    15    17   ar
     7    17    18   ar
     8    18    19    1
     9    18    20   ar
    10    20     1    1
    11     1     2   ar
    12     2     3   ar
    13     3     4   ar
    14     4     5   ar
    15     5     6   ar
    16     5     7    1
    17     7    35    1
    18    35    36    1
    19    36    37    1
    20    37    38   am
    21    38    39    2
    22    38    41    1
    23    41    42    1
    24     7     8   am
    25     8     9    2
    26     8    10    1
    27    10    11    1
    28    10    27    1
    29    27    28   ar
    30    28    29   ar
    31    29    30    1
    32    29    31   ar
    33    31    32   ar
    34    32    33    1
    35    32    34   ar
    36    10    12    1
    37    20    13   ar
    38     6     1   ar
    39    34    27   ar
    40    12     4    1
    41    16    21    1
    42    16    22    1
    43    19    23    1
    44    19    24    1
    45    37    40    1
@<TRIPOS>MOLECULE
*****
 42 45 0 0 0
SMALL
GASTEIGER

@<TRIPOS>ATOM
      1 C          64.0952   89.3174   13.1948 C.ar    1  UNL1        0.0053
      2 C          64.2723   89.1524   14.6751 C.ar    1  UNL1        0.0033
      3 C          64.0081   87.8234   15.3184 C.ar    1  UNL1        0.0382
      4 C          63.5669   86.6594   14.4815 C.ar    1  UNL1        0.1529
      5 C          63.3898   86.8245   13.0012 C.ar    1  UNL1        0.0882
      6 C          63.6540   88.1535   12.3578 C.ar    1  UNL1        0.0181
      7 N          62.9486   85.6605   12.1642 N.am    1  UNL1       -0.2512
      8 C          62.6844   84.3315   12.8075 C.2     1  UNL1        0.2698
      9 O          62.2432   83.1676   11.9705 O.2     1  UNL1       -0.2704
     10 C          62.8615   84.1664   14.2879 C.3     1  UNL1        0.2199
     11 C          62.8886   83.5190   15.6407 C.3     1  UNL1        0.0579
     12 O          63.3028   85.3303   15.1249 O.3     1  UNL1       -0.4686
     13 C          65.2743   91.6325   13.2153 C.ar    1  UNL1        0.0645
     14 N          65.5384   92.9615   12.5720 N.ar    1  UNL1       -0.2183
     15 C          64.8877   93.3046   11.2647 C.ar    1  UNL1        0.2145
     16 N          65.1519   94.6336   10.6214 N.pl3   1  UNL1       -0.3274
     17 N          63.9728   92.3186   10.6008 N.ar    1  UNL1       -0.1995
     18 C          63.7086   90.9895   11.2442 C.ar    1  UNL1        0.1293
     19 N          62.7937   90.0035   10.5804 N.pl3   1  UNL1       -0.3425
     20 C          64.3594   90.6465   12.5514 C.ar    1  UNL1        0.0449
     21 H          65.7523   95.2807   11.0571 H       1  UNL1        0.1452
     22 H          64.7247   94.8587    9.7634 H       1  UNL1        0.1452
     23 H          62.3666   90.2287    9.7224 H       1  UNL1        0.1437
     24 H          62.6203   89.1312   11.0026 H       1  UNL1        0.1437
     25 C          66.1235   92.3515   15.5631 C.3     1  UNL1        0.0067
     26 C          65.9250   91.2894   14.5226 C.3     1  UNL1        0.0460
     27 C          62.4297   82.7777   13.9207 C.ar    1  UNL1        0.0264
     28 C          63.2453   81.9691   12.9558 C.ar    1  UNL1        0.0293
     29 C          62.8134   80.5803   12.5887 C.ar    1  UNL1        0.1422
     30 F          63.6292   79.7717   11.6237 F       1  UNL1       -0.2041
     31 C          61.5661   80.0001   13.1863 C.ar    1  UNL1        0.0592
     32 C          60.7505   80.8086   14.1512 C.ar    1  UNL1        0.1422
     33 F          59.5030   80.2284   14.7489 F       1  UNL1       -0.2041
     34 C          61.1822   82.1974   14.5184 C.ar    1  UNL1        0.0293
     35 C          62.7715   85.8256   10.6839 C.3     1  UNL1        0.1197
     36 C          63.2091   84.7363    9.7501 C.3     1  UNL1        0.1145
     37 N          62.8950   84.8321    8.2864 N.am    1  UNL1       -0.2689
     38 C          61.5676   85.3674    7.8376 C.2     1  UNL1        0.4018
     39 O          60.5542   85.8068    8.8526 O.2     1  UNL1       -0.2264
     40 H          63.5602   84.5437    7.6203 H       1  UNL1        0.1528
     41 O          61.2535   85.4632    6.3741 O.3     1  UNL1       -0.4306
     42 C          61.7338   84.3987    5.4326 C.3     1  UNL1        0.2573
@<TRIPOS>BOND
     1    25    26    1
     2    26    13    1
     3    13    14   ar
     4    14    15   ar
     5    15    16    1
     6    15    17   ar
     7    17    18   ar
     8    18    19    1
     9    18    20   ar
    10    20     1    1
    11     1     2   ar
    12     2     3   ar
    13     3     4   ar
    14     4     5   ar
    15     5     6   ar
    16     5     7    1
    17     7    35    1
    18    35    36    1
    19    36    37    1
    20    37    38   am
    21    38    39    2
    22    38    41    1
    23    41    42    1
    24     7     8   am
    25     8     9    2
    26     8    10    1
    27    10    11    1
    28    10    27    1
    29    27    28   ar
    30    28    29   ar
    31    29    30    1
    32    29    31   ar
    33    31    32   ar
    34    32    33    1
    35    32    34   ar
    36    10    12    1
    37    20    13   ar
    38     6     1   ar
    39    34    27   ar
    40    12     4    1
    41    16    21    1
    42    16    22    1
    43    19    23    1
    44    19    24    1
    45    37    40    1
@<TRIPOS>MOLECULE
*****
 42 45 0 0 0
SMALL
GASTEIGER

@<TRIPOS>ATOM
      1 C          62.3756   86.2508   10.2319 C.ar    1  UNL1        0.0053
      2 C          62.4509   85.3144   11.4013 C.ar    1  UNL1        0.0033
      3 C          62.8908   85.8230   12.7421 C.ar    1  UNL1        0.0382
      4 C          63.2553   87.2679   12.9135 C.ar    1  UNL1        0.1529
      5 C          63.1800   88.2042   11.7441 C.ar    1  UNL1        0.0882
      6 C          62.7401   87.6956   10.4033 C.ar    1  UNL1        0.0181
      7 N          63.5445   89.6491   11.9156 N.am    1  UNL1       -0.2512
      8 C          63.9844   90.1576   13.2564 C.2     1  UNL1        0.2698
      9 O          64.3490   91.6025   13.4278 O.2     1  UNL1       -0.2704
     10 C          64.0598   89.2213   14.4259 C.3     1  UNL1        0.2199
     11 C          64.2894   88.7271   15.8234 C.3     1  UNL1        0.0579
     12 O          63.6952   87.7764   14.2545 O.3     1  UNL1       -0.4686
     13 C          60.6639   86.2482    8.2773 C.ar    1  UNL1        0.0645
     14 N          60.2240   85.7397    6.9365 N.ar    1  UNL1       -0.2183
     15 C          61.0559   84.7252    6.2093 C.ar    1  UNL1        0.2145
     16 N          60.6159   84.2167    4.8684 N.pl3   1  UNL1       -0.3274
     17 N          62.3276   84.2192    6.8229 N.ar    1  UNL1       -0.1995
     18 C          62.7675   84.7277    8.1638 C.ar    1  UNL1        0.1293
     19 N          64.0393   84.2217    8.7775 N.pl3   1  UNL1       -0.3425
     20 C          61.9357   85.7422    8.8910 C.ar    1  UNL1        0.0449
     21 H          59.7812   84.5488    4.4657 H       1  UNL1        0.1452
     22 H          61.1619   83.5509    4.3911 H       1  UNL1        0.1452
     23 H          64.5852   83.5559    8.3002 H       1  UNL1        0.1437
     24 H          64.3280   84.5555    9.6576 H       1  UNL1        0.1437
     25 C          59.7616   88.6742    8.5018 C.3     1  UNL1        0.0067
     26 C          59.8320   87.2628    9.0046 C.3     1  UNL1        0.0460
     27 C          64.5040   90.4945   15.0826 C.ar    1  UNL1        0.0264
     28 C          63.5462   91.2724   15.9355 C.ar    1  UNL1        0.0293
     29 C          63.9905   92.5457   16.5922 C.ar    1  UNL1        0.1422
     30 F          63.0325   93.3236   17.4451 F       1  UNL1       -0.2041
     31 C          65.3926   93.0411   16.3962 C.ar    1  UNL1        0.0592
     32 C          66.3505   92.2633   15.5433 C.ar    1  UNL1        0.1422
     33 F          67.7527   92.7587   15.3472 F       1  UNL1       -0.2041
     34 C          65.9063   90.9900   14.8865 C.ar    1  UNL1        0.0293
     35 C          63.4692   90.5854   10.7462 C.3     1  UNL1        0.1197
     36 C          64.1249   91.9325   10.8205 C.3     1  UNL1        0.1145
     37 N          65.6153   92.0490   10.6963 N.am    1  UNL1       -0.2689
     38 C          66.2522   93.3989   10.5479 C.2     1  UNL1        0.4018
     39 O          65.3988   94.6323   10.5236 O.2     1  UNL1       -0.2264
     40 H          66.1754   91.2395   10.7122 H       1  UNL1        0.1528
     41 O          67.7425   93.5155   10.4237 O.3     1  UNL1       -0.4306
     42 C          68.4470   92.9072    9.2474 C.3     1  UNL1        0.2573
@<TRIPOS>BOND
     1    25    26    1
     2    26    13    1
     3    13    14   ar
     4    14    15   ar
     5    15    16    1
     6    15    17   ar
     7    17    18   ar
     8    18    19    1
     9    18    20   ar
    10    20     1    1
    11     1     2   ar
    12     2     3   ar
    13     3     4   ar
    14     4     5   ar
    15     5     6   ar
    16     5     7    1
    17     7    35    1
    18    35    36    1
    19    36    37    1
    20    37    38   am
    21    38    39    2
    22    38    41    1
    23    41    42    1
    24     7     8   am
    25     8     9    2
    26     8    10    1
    27    10    11    1
    28    10    27    1
    29    27    28   ar
    30    28    29   ar
    31    29    30    1
    32    29    31   ar
    33    31    32   ar
    34    32    33    1
    35    32    34   ar
    36    10    12    1
    37    20    13   ar
    38     6     1   ar
    39    34    27   ar
    40    12     4    1
    41    16    21    1
    42    16    22    1
    43    19    23    1
    44    19    24    1
    45    37    40    1
@<TRIPOS>MOLECULE
*****
 42 45 0 0 0
SMALL
GASTEIGER

@<TRIPOS>ATOM
      1 C          62.3298   86.1573   10.3382 C.ar    1  UNL1        0.0053
      2 C          62.3447   85.2456   11.5292 C.ar    1  UNL1        0.0033
      3 C          62.7847   85.7650   12.8658 C.ar    1  UNL1        0.0382
      4 C          63.2097   87.1961   13.0115 C.ar    1  UNL1        0.1529
      5 C          63.1948   88.1078   11.8205 C.ar    1  UNL1        0.0882
      6 C          62.7548   87.5885   10.4839 C.ar    1  UNL1        0.0181
      7 N          63.6198   89.5390   11.9662 N.am    1  UNL1       -0.2512
      8 C          64.0598   90.0584   13.3028 C.2     1  UNL1        0.2698
      9 O          64.4848   91.4895   13.4485 O.2     1  UNL1       -0.2704
     10 C          64.0747   89.1466   14.4939 C.3     1  UNL1        0.2199
     11 C          64.2595   88.6750   15.9057 C.3     1  UNL1        0.0579
     12 O          63.6497   87.7155   14.3482 O.3     1  UNL1       -0.4686
     13 C          62.7680   84.6908    8.2388 C.ar    1  UNL1        0.0645
     14 N          62.3281   84.1715    6.9022 N.ar    1  UNL1       -0.2183
     15 C          61.0099   84.5992    6.3281 C.ar    1  UNL1        0.2145
     16 N          60.5700   84.0799    4.9915 N.pl3   1  UNL1       -0.3274
     17 N          60.1317   85.5463    7.0908 N.ar    1  UNL1       -0.1995
     18 C          60.5717   86.0657    8.4275 C.ar    1  UNL1        0.1293
     19 N          59.6935   87.0128    9.1902 N.pl3   1  UNL1       -0.3425
     20 C          61.8898   85.6380    9.0015 C.ar    1  UNL1        0.0449
     21 H          61.1465   83.4582    4.4909 H       1  UNL1        0.1452
     22 H          59.7049   84.3606    4.6147 H       1  UNL1        0.1452
     23 H          58.8283   87.2936    8.8135 H       1  UNL1        0.1437
     24 H          59.9822   87.3537   10.0675 H       1  UNL1        0.1437
     25 C          64.1480   83.1130    9.7739 C.3     1  UNL1        0.0067
     26 C          64.0862   84.2631    8.8129 C.3     1  UNL1        0.0460
     27 C          64.5639   90.4139   15.1298 C.ar    1  UNL1        0.0264
     28 C          63.6468   91.2171   16.0037 C.ar    1  UNL1        0.0293
     29 C          64.1360   92.4845   16.6397 C.ar    1  UNL1        0.1422
     30 F          63.2188   93.2876   17.5136 F       1  UNL1       -0.2041
     31 C          65.5423   92.9486   16.4019 C.ar    1  UNL1        0.0592
     32 C          66.4595   92.1454   15.5280 C.ar    1  UNL1        0.1422
     33 F          67.8659   92.6096   15.2901 F       1  UNL1       -0.2041
     34 C          65.9704   90.8781   14.8919 C.ar    1  UNL1        0.0293
     35 C          63.6049   90.4507   10.7752 C.3     1  UNL1        0.1197
     36 C          62.3673   91.2304   10.4430 C.3     1  UNL1        0.1145
     37 N          61.1659   91.1475   11.3374 N.am    1  UNL1       -0.2689
     38 C          59.9363   90.4224   10.8765 C.2     1  UNL1        0.4018
     39 O          59.9081   89.7803    9.5211 O.2     1  UNL1       -0.2264
     40 H          61.1845   91.5689   12.2270 H       1  UNL1        0.1528
     41 O          58.7350   90.3395   11.7709 O.3     1  UNL1       -0.4306
     42 C          58.5602   89.1629   12.6847 C.3     1  UNL1        0.2573
@<TRIPOS>BOND
     1    25    26    1
     2    26    13    1
     3    13    14   ar
     4    14    15   ar
     5    15    16    1
     6    15    17   ar
     7    17    18   ar
     8    18    19    1
     9    18    20   ar
    10    20     1    1
    11     1     2   ar
    12     2     3   ar
    13     3     4   ar
    14     4     5   ar
    15     5     6   ar
    16     5     7    1
    17     7    35    1
    18    35    36    1
    19    36    37    1
    20    37    38   am
    21    38    39    2
    22    38    41    1
    23    41    42    1
    24     7     8   am
    25     8     9    2
    26     8    10    1
    27    10    11    1
    28    10    27    1
    29    27    28   ar
    30    28    29   ar
    31    29    30    1
    32    29    31   ar
    33    31    32   ar
    34    32    33    1
    35    32    34   ar
    36    10    12    1
    37    20    13   ar
    38     6     1   ar
    39    34    27   ar
    40    12     4    1
    41    16    21    1
    42    16    22    1
    43    19    23    1
    44    19    24    1
    45    37    40    1
@<TRIPOS>MOLECULE
*****
 42 45 0 0 0
SMALL
GASTEIGER

@<TRIPOS>ATOM
      1 C          62.3185   86.2831   10.3155 C.ar    1  UNL1        0.0053
      2 C          62.3862   85.3562   11.4929 C.ar    1  UNL1        0.0033
      3 C          62.8422   85.8698   12.8264 C.ar    1  UNL1        0.0382
      4 C          63.2305   87.3102   12.9825 C.ar    1  UNL1        0.1529
      5 C          63.1628   88.2371   11.8051 C.ar    1  UNL1        0.0882
      6 C          62.7068   87.7235   10.4716 C.ar    1  UNL1        0.0181
      7 N          63.5511   89.6775   11.9612 N.am    1  UNL1       -0.2512
      8 C          64.0071   90.1911   13.2947 C.2     1  UNL1        0.2698
      9 O          64.3955   91.6315   13.4508 O.2     1  UNL1       -0.2704
     10 C          64.0749   89.2642   14.4722 C.3     1  UNL1        0.2199
     11 C          64.3052   88.7791   15.8727 C.3     1  UNL1        0.0579
     12 O          63.6865   87.8238   14.3161 O.3     1  UNL1       -0.4686
     13 C          62.7142   84.7966    8.2217 C.ar    1  UNL1        0.0645
     14 N          62.2582   84.2831    6.8882 N.ar    1  UNL1       -0.2183
     15 C          60.9504   84.7425    6.3148 C.ar    1  UNL1        0.2145
     16 N          60.4944   84.2289    4.9813 N.pl3   1  UNL1       -0.3274
     17 N          60.0986   85.7154    7.0750 N.ar    1  UNL1       -0.1995
     18 C          60.5547   86.2290    8.4086 C.ar    1  UNL1        0.1293
     19 N          59.7029   87.2019    9.1688 N.pl3   1  UNL1       -0.3425
     20 C          61.8624   85.7696    8.9819 C.ar    1  UNL1        0.0449
     21 H          61.0535   83.5904    4.4824 H       1  UNL1        0.1452
     22 H          59.6361   84.5304    4.6050 H       1  UNL1        0.1452
     23 H          58.8446   87.5034    8.7925 H       1  UNL1        0.1437
     24 H          60.0022   87.5390   10.0440 H       1  UNL1        0.1437
     25 C          64.0600   83.1668    9.7325 C.3     1  UNL1        0.0067
     26 C          64.0220   84.3372    8.7951 C.3     1  UNL1        0.0460
     27 C          64.5432   90.5361   15.1147 C.ar    1  UNL1        0.0264
     28 C          63.6151   91.3161   15.9980 C.ar    1  UNL1        0.0293
     29 C          64.0835   92.5881   16.6405 C.ar    1  UNL1        0.1422
     30 F          63.1553   93.3680   17.5239 F       1  UNL1       -0.2041
     31 C          65.4798   93.0801   16.3997 C.ar    1  UNL1        0.0592
     32 C          66.4078   92.3001   15.5164 C.ar    1  UNL1        0.1422
     33 F          67.8043   92.7921   15.2755 F       1  UNL1       -0.2041
     34 C          65.9396   91.0281   14.8738 C.ar    1  UNL1        0.0293
     35 C          63.4834   90.6044   10.7838 C.3     1  UNL1        0.1197
     36 C          64.1413   91.9508   10.8504 C.3     1  UNL1        0.1145
     37 N          65.6283   92.0676   10.6905 N.am    1  UNL1       -0.2689
     38 C          66.2646   93.4197   10.5603 C.2     1  UNL1        0.4018
     39 O          65.4140   94.6549   10.5899 O.2     1  UNL1       -0.2264
     40 H          66.1865   91.2569   10.6710 H       1  UNL1        0.1528
     41 O          67.7514   93.5366   10.4004 O.3     1  UNL1       -0.4306
     42 C          68.4382   92.8562    9.2535 C.3     1  UNL1        0.2573
@<TRIPOS>BOND
     1    25    26    1
     2    26    13    1
     3    13    14   ar
     4    14    15   ar
     5    15    16    1
     6    15    17   ar
     7    17    18   ar
     8    18    19    1
     9    18    20   ar
    10    20     1    1
    11     1     2   ar
    12     2     3   ar
    13     3     4   ar
    14     4     5   ar
    15     5     6   ar
    16     5     7    1
    17     7    35    1
    18    35    36    1
    19    36    37    1
    20    37    38   am
    21    38    39    2
    22    38    41    1
    23    41    42    1
    24     7     8   am
    25     8     9    2
    26     8    10    1
    27    10    11    1
    28    10    27    1
    29    27    28   ar
    30    28    29   ar
    31    29    30    1
    32    29    31   ar
    33    31    32   ar
    34    32    33    1
    35    32    34   ar
    36    10    12    1
    37    20    13   ar
    38     6     1   ar
    39    34    27   ar
    40    12     4    1
    41    16    21    1
    42    16    22    1
    43    19    23    1
    44    19    24    1
    45    37    40    1
