@<TRIPOS>MOLECULE
*****
 33 36 0 0 0
SMALL
GASTEIGER

@<TRIPOS>ATOM
      1 C          63.9850   89.7346   12.3260 C.ar    1  UNL1       -0.0223
      2 C          64.2605   88.9376   13.5664 C.ar    1  UNL1       -0.0030
      3 C          63.7238   87.5429   13.6964 C.ar    1  UNL1        0.0143
      4 C          62.9116   86.9453   12.5860 C.ar    1  UNL1        0.0502
      5 C          62.6361   87.7424   11.3455 C.ar    1  UNL1        0.0089
      6 C          63.1728   89.1370   11.2155 C.ar    1  UNL1       -0.0034
      7 C          66.0817   96.0157   10.4816 C.3     1  UNL1        0.0948
      8 C          66.1317   95.3133   11.8060 C.2     1  UNL1        0.2261
      9 O          66.7184   96.0055   13.0004 O.2     1  UNL1       -0.2749
     10 N          65.5950   93.9186   11.9360 N.am    1  UNL1       -0.2795
     11 C          65.0083   93.2264   10.7416 C.3     1  UNL1        0.0937
     12 C          64.4716   91.8318   10.8716 C.3     1  UNL1        0.0259
     13 C          64.5217   91.1293   12.1960 C.3     1  UNL1        0.0257
     14 C          65.1084   91.8215   13.3904 C.3     1  UNL1        0.0259
     15 C          65.6450   93.2162   13.2604 C.3     1  UNL1        0.0937
     16 C          61.8239   87.1447   10.2349 C.2     1  UNL1       -0.0253
     17 C          62.4549   86.1708    9.2846 C.2     1  UNL1       -0.0303
     18 C          61.6428   85.5731    8.1741 C.3     1  UNL1        0.0257
     19 C          60.1996   85.9495    8.0139 C.3     1  UNL1        0.0050
     20 C          59.5686   86.9235    8.9642 C.3     1  UNL1        0.0050
     21 C          60.3808   87.5211   10.0748 C.3     1  UNL1        0.0261
     22 N          62.3749   85.5507   12.7159 N.am    1  UNL1       -0.2779
     23 C          63.2617   84.4495   13.2170 C.2     1  UNL1        0.2837
     24 O          64.6852   84.7429   13.5880 O.2     1  UNL1       -0.2665
     25 H          61.4407   85.3580   12.4724 H       1  UNL1        0.1553
     26 C          62.7250   83.0548   13.3469 C.ar    1  UNL1        0.1958
     27 N          63.4459   81.7941   12.9716 N.ar    1  UNL1       -0.2205
     28 C          62.5397   80.6361   13.2678 C.ar    1  UNL1        0.1282
     29 C          61.2586   81.1811   13.8262 C.ar    1  UNL1        0.1469
     30 N          61.3731   82.6760   13.8752 N.ar    1  UNL1       -0.3257
     31 H          60.6823   83.2990   14.1974 H       1  UNL1        0.1682
     32 C          60.0714   80.3732   14.2596 C.1     1  UNL1        0.1194
     33 N          58.8842   79.5653   14.6930 N.1     1  UNL1       -0.1893
@<TRIPOS>BOND
     1     7     8    1
     2     8     9    2
     3     8    10   am
     4    10    11    1
     5    11    12    1
     6    12    13    1
     7    13     1    1
     8     1     2   ar
     9     2     3   ar
    10     3     4   ar
    11     4    22    1
    12    22    23   am
    13    23    24    2
    14    23    26    1
    15    26    27   ar
    16    27    28   ar
    17    28    29   ar
    18    29    32    1
    19    32    33    3
    20    29    30   ar
    21     4     5   ar
    22     5    16    1
    23    16    17    2
    24    17    18    1
    25    18    19    1
    26    19    20    1
    27    20    21    1
    28     5     6   ar
    29    13    14    1
    30    14    15    1
    31    15    10    1
    32     6     1   ar
    33    30    26   ar
    34    21    16    1
    35    22    25    1
    36    30    31    1
@<TRIPOS>MOLECULE
*****
 33 36 0 0 0
SMALL
GASTEIGER

@<TRIPOS>ATOM
      1 C          58.8172   94.4444   -1.5747 C.ar    1  UNL1       -0.0223
      2 C          57.9977   95.6625   -1.2673 C.ar    1  UNL1       -0.0030
      3 C          56.8518   96.0399   -2.1586 C.ar    1  UNL1        0.0143
      4 C          56.5254   95.1993   -3.3573 C.ar    1  UNL1        0.0502
      5 C          57.3449   93.9812   -3.6646 C.ar    1  UNL1        0.0089
      6 C          58.4909   93.6037   -2.7733 C.ar    1  UNL1       -0.0034
      7 C          63.4036   91.6057    2.6864 C.3     1  UNL1        0.0948
      8 C          63.4009   92.9344    1.9904 C.2     1  UNL1        0.2261
      9 O          64.5441   93.8857    2.1857 O.2     1  UNL1       -0.2749
     10 N          62.2550   93.3119    1.0991 N.am    1  UNL1       -0.2795
     11 C          61.1118   92.3607    0.9038 C.3     1  UNL1        0.0937
     12 C          59.9659   92.7381    0.0126 C.3     1  UNL1        0.0259
     13 C          59.9632   94.0669   -0.6834 C.3     1  UNL1        0.0257
     14 C          61.1064   95.0181   -0.4881 C.3     1  UNL1        0.0259
     15 C          62.2523   94.6406    0.4032 C.3     1  UNL1        0.0937
     16 C          57.0186   93.1405   -4.8633 C.2     1  UNL1       -0.0253
     17 C          55.9671   92.0749   -4.7682 C.2     1  UNL1       -0.0303
     18 C          55.6408   91.2342   -5.9668 C.3     1  UNL1        0.0257
     19 C          56.3658   91.4591   -7.2606 C.3     1  UNL1        0.0050
     20 C          57.4173   92.5247   -7.3557 C.3     1  UNL1        0.0050
     21 C          57.7436   93.3654   -6.1570 C.3     1  UNL1        0.0261
     22 N          55.3795   95.5768   -4.2485 N.am    1  UNL1       -0.2779
     23 C          54.0020   95.7300   -3.6749 C.2     1  UNL1        0.2837
     24 O          53.7704   95.5056   -2.2099 O.2     1  UNL1       -0.2665
     25 H          55.5315   95.7240   -5.2100 H       1  UNL1        0.1553
     26 C          52.8561   96.1074   -4.5662 C.ar    1  UNL1        0.1958
     27 N          52.9591   96.5438   -5.9976 N.ar    1  UNL1       -0.2205
     28 C          51.5726   96.8209   -6.4986 C.ar    1  UNL1        0.1282
     29 C          50.6128   96.5558   -5.3769 C.ar    1  UNL1        0.1469
     30 N          51.4060   96.1148   -4.1825 N.ar    1  UNL1       -0.3257
     31 H          51.0392   95.8727   -3.3015 H       1  UNL1        0.1682
     32 C          49.1215   96.7053   -5.4385 C.1     1  UNL1        0.1194
     33 N          47.6303   96.8548   -5.5002 N.1     1  UNL1       -0.1893
@<TRIPOS>BOND
     1     7     8    1
     2     8     9    2
     3     8    10   am
     4    10    11    1
     5    11    12    1
     6    12    13    1
     7    13     1    1
     8     1     2   ar
     9     2     3   ar
    10     3     4   ar
    11     4    22    1
    12    22    23   am
    13    23    24    2
    14    23    26    1
    15    26    27   ar
    16    27    28   ar
    17    28    29   ar
    18    29    32    1
    19    32    33    3
    20    29    30   ar
    21     4     5   ar
    22     5    16    1
    23    16    17    2
    24    17    18    1
    25    18    19    1
    26    19    20    1
    27    20    21    1
    28     5     6   ar
    29    13    14    1
    30    14    15    1
    31    15    10    1
    32     6     1   ar
    33    30    26   ar
    34    21    16    1
    35    22    25    1
    36    30    31    1
@<TRIPOS>MOLECULE
*****
 33 36 0 0 0
SMALL
GASTEIGER

@<TRIPOS>ATOM
      1 C          64.3739   88.8586   13.4865 C.ar    1  UNL1       -0.0223
      2 C          64.6479   87.7996   14.5127 C.ar    1  UNL1       -0.0030
      3 C          64.0632   86.4279   14.3495 C.ar    1  UNL1        0.0143
      4 C          63.2045   86.1153   13.1601 C.ar    1  UNL1        0.0502
      5 C          62.9305   87.1744   12.1338 C.ar    1  UNL1        0.0089
      6 C          63.5152   88.5460   12.2970 C.ar    1  UNL1       -0.0034
      7 C          67.6804   94.6206   15.2519 C.3     1  UNL1        0.0948
      8 C          66.7129   94.3453   14.1392 C.2     1  UNL1        0.2261
      9 O          66.3301   95.4416   13.1898 O.2     1  UNL1       -0.2749
     10 N          66.1281   92.9736   13.9760 N.am    1  UNL1       -0.2795
     11 C          66.5109   91.8773   14.9255 C.3     1  UNL1        0.0937
     12 C          65.9262   90.5056   14.7623 C.3     1  UNL1        0.0259
     13 C          64.9587   90.2303   13.6497 C.3     1  UNL1        0.0257
     14 C          64.5759   91.3266   12.7002 C.3     1  UNL1        0.0259
     15 C          65.1606   92.6983   12.8634 C.3     1  UNL1        0.0937
     16 C          62.0717   86.8618   10.9443 C.2     1  UNL1       -0.0253
     17 C          60.7047   87.4678   10.8262 C.2     1  UNL1       -0.0303
     18 C          59.8459   87.1553    9.6368 C.3     1  UNL1        0.0257
     19 C          60.3542   86.2367    8.5653 C.3     1  UNL1        0.0050
     20 C          61.7213   85.6308    8.6834 C.3     1  UNL1        0.0050
     21 C          62.5801   85.9433    9.8729 C.3     1  UNL1        0.0261
     22 N          62.6197   84.7437   12.9969 N.am    1  UNL1       -0.2779
     23 C          63.4506   83.5329   13.3029 C.2     1  UNL1        0.2837
     24 O          64.8662   83.6937   13.7722 O.2     1  UNL1       -0.2665
     25 H          61.6906   84.6381   12.6889 H       1  UNL1        0.1553
     26 C          62.8659   82.1612   13.1397 C.ar    1  UNL1        0.1958
     27 N          61.8025   81.5478   14.0017 N.ar    1  UNL1       -0.2205
     28 C          61.5213   80.1696   13.4806 C.ar    1  UNL1        0.1282
     29 C          62.4108   79.9313   12.2966 C.ar    1  UNL1        0.1469
     30 N          63.2418   81.1621   12.0858 N.ar    1  UNL1       -0.3257
     31 H          63.9157   81.2916   11.3798 H       1  UNL1        0.1682
     32 C          62.4606   78.6815   11.4686 C.1     1  UNL1        0.1194
     33 N          62.5104   77.4317   10.6406 N.1     1  UNL1       -0.1893
@<TRIPOS>BOND
     1     7     8    1
     2     8     9    2
     3     8    10   am
     4    10    11    1
     5    11    12    1
     6    12    13    1
     7    13     1    1
     8     1     2   ar
     9     2     3   ar
    10     3     4   ar
    11     4    22    1
    12    22    23   am
    13    23    24    2
    14    23    26    1
    15    26    27   ar
    16    27    28   ar
    17    28    29   ar
    18    29    32    1
    19    32    33    3
    20    29    30   ar
    21     4     5   ar
    22     5    16    1
    23    16    17    2
    24    17    18    1
    25    18    19    1
    26    19    20    1
    27    20    21    1
    28     5     6   ar
    29    13    14    1
    30    14    15    1
    31    15    10    1
    32     6     1   ar
    33    30    26   ar
    34    21    16    1
    35    22    25    1
    36    30    31    1
