@<TRIPOS>MOLECULE
*****
 34 38 0 0 0
SMALL
GASTEIGER

@<TRIPOS>ATOM
      1 C          65.2880   91.7682   12.7914 C.3     1  UNL1        0.1092
      2 C          65.5459   92.6488   11.6048 C.3     1  UNL1        0.1598
      3 O          64.6666   92.5517   10.3935 O.3     1  UNL1       -0.3507
      4 C          63.5293   91.5741   10.3687 C.3     1  UNL1        0.1634
      5 C          63.2713   90.6934   11.5552 C.3     1  UNL1        0.1455
      6 N          64.1507   90.7905   12.7666 N.3     1  UNL1       -0.1499
      7 C          67.6356   91.5805   13.8884 C.3     1  UNL1        0.0015
      8 C          66.1673   91.8652   14.0027 C.3     1  UNL1        0.0189
      9 C          65.5784   92.2471   15.3283 C.3     1  UNL1        0.0015
     10 C          62.1340   89.7157   11.5305 C.3     1  UNL1        0.1550
     11 C          60.9835   90.6591   11.3407 C.3     1  UNL1        0.0453
     12 C          60.7343   89.1835   11.4428 C.3     1  UNL1        0.0453
     13 O          62.8896   88.4327   11.7117 O.3     1  UNL1       -0.4403
     14 C          62.5577   87.2407   10.8638 C.2     1  UNL1        0.4047
     15 O          62.0516   87.4328    9.4649 O.2     1  UNL1       -0.2262
     16 N          62.7320   85.8564   11.4148 N.am    1  UNL1       -0.2459
     17 C          63.2258   85.5098   12.7881 C.3     1  UNL1        0.0981
     18 C          63.2420   84.0150   12.9112 C.3     1  UNL1        0.0387
     19 C          63.5572   82.8769   13.8361 C.3     1  UNL1        0.0703
     20 N          63.2682   81.5962   13.1105 N.3     1  UNL1       -0.2974
     21 C          62.7744   81.9429   11.7372 C.3     1  UNL1        0.0703
     22 C          62.7582   83.4377   11.6140 C.3     1  UNL1        0.0387
     23 C          62.4430   84.5758   10.6892 C.3     1  UNL1        0.0981
     24 H          62.5542   81.0678   13.6119 H       1  UNL1        0.1232
     25 S          63.8927   89.9099   13.9531 S.O2    1  UNL1        0.0635
     26 O          62.8782   90.8912   14.4609 O.2     1  UNL1       -0.1528
     27 O          64.7224   88.8610   13.7682 O.2     1  UNL1       -0.1528
     28 C          63.6347   89.0292   15.1397 C.ar    1  UNL1        0.1223
     29 C          63.9076   87.5567   15.0543 C.ar    1  UNL1        0.0208
     30 C          63.6496   86.6761   16.2409 C.ar    1  UNL1        0.0128
     31 C          63.1187   87.2679   17.5128 C.ar    1  UNL1        0.0578
     32 CL         62.8607   86.3873   18.6994 Cl      1  UNL1       -0.0822
     33 C          62.8458   88.7404   17.5982 C.ar    1  UNL1        0.0128
     34 C          63.1038   89.6211   16.4116 C.ar    1  UNL1        0.0208
@<TRIPOS>BOND
     1     7     8    1
     2     8     9    1
     3     1     8    1
     4     1     2    1
     5     2     3    1
     6     3     4    1
     7     4     5    1
     8     5    10    1
     9    10    13    1
    10    13    14    1
    11    14    15    2
    12    14    16   am
    13    16    17    1
    14    17    18    1
    15    18    19    1
    16    19    20    1
    17    20    21    1
    18    21    22    1
    19    22    23    1
    20    10    11    1
    21    11    12    1
    22     5     6    1
    23     6    25    1
    24    25    26    2
    25    25    27    2
    26    25    28    1
    27    28    29   ar
    28    29    30   ar
    29    30    31   ar
    30    31    32    1
    31    31    33   ar
    32    33    34   ar
    33     6     1    1
    34    34    28   ar
    35    12    10    1
    36    23    16    1
    37    22    18    1
    38    20    24    1
@<TRIPOS>MOLECULE
*****
 34 38 0 0 0
SMALL
GASTEIGER

@<TRIPOS>ATOM
      1 C          63.3893   85.7565   12.6751 C.3     1  UNL1        0.1092
      2 C          64.2491   85.4415   13.8631 C.3     1  UNL1        0.1598
      3 O          64.7531   86.5498   14.7392 O.3     1  UNL1       -0.3507
      4 C          64.3973   87.9732   14.4273 C.3     1  UNL1        0.1634
      5 C          63.5375   88.2883   13.2393 C.3     1  UNL1        0.1455
      6 N          63.0335   87.1799   12.3632 N.3     1  UNL1       -0.1499
      7 C          62.0740   83.5340   12.3910 C.3     1  UNL1        0.0015
      8 C          62.8853   84.6482   11.7990 C.3     1  UNL1        0.0189
      9 C          63.1926   84.6540   10.3308 C.3     1  UNL1        0.0015
     10 C          63.1817   89.7117   12.9273 C.3     1  UNL1        0.1550
     11 C          61.6983   89.6629   13.1442 C.3     1  UNL1        0.0453
     12 C          62.3537   90.9465   12.7283 C.3     1  UNL1        0.0453
     13 O          64.5416   90.2547   12.6021 O.3     1  UNL1       -0.4403
     14 C          64.9582   91.5969   13.1264 C.2     1  UNL1        0.4047
     15 O          64.8362   91.9012   14.5901 O.2     1  UNL1       -0.2262
     16 N          65.4970   92.6349   12.1871 N.am    1  UNL1       -0.2459
     17 C          65.6760   92.4760   10.7063 C.3     1  UNL1        0.0981
     18 C          66.2409   93.7568   10.1676 C.3     1  UNL1        0.0387
     19 C          66.7007   94.4502    8.9194 C.3     1  UNL1        0.0703
     20 N          67.1550   95.8293    9.2959 N.3     1  UNL1       -0.2974
     21 C          66.9759   95.9882   10.7767 C.3     1  UNL1        0.0703
     22 C          66.4110   94.7074   11.3154 C.3     1  UNL1        0.0387
     23 C          65.9512   94.0140   12.5635 C.3     1  UNL1        0.0981
     24 H          66.5950   96.5248    8.8029 H       1  UNL1        0.1232
     25 S          62.1737   87.4950   11.1752 S.O2    1  UNL1        0.0635
     26 O          60.9994   86.8563   11.8557 O.2     1  UNL1       -0.1528
     27 O          63.0119   88.1214   10.3221 O.2     1  UNL1       -0.1528
     28 C          61.3139   87.8101    9.9872 C.ar    1  UNL1        0.1223
     29 C          61.0360   89.2376    9.6198 C.ar    1  UNL1        0.0208
     30 C          60.1762   89.5527    8.4318 C.ar    1  UNL1        0.0128
     31 C          59.5942   88.4403    7.6110 C.ar    1  UNL1        0.0578
     32 CL         58.7343   88.7554    6.4230 Cl      1  UNL1       -0.0822
     33 C          59.8720   87.0127    7.9784 C.ar    1  UNL1        0.0128
     34 C          60.7318   86.6976    9.1664 C.ar    1  UNL1        0.0208
@<TRIPOS>BOND
     1     7     8    1
     2     8     9    1
     3     1     8    1
     4     1     2    1
     5     2     3    1
     6     3     4    1
     7     4     5    1
     8     5    10    1
     9    10    13    1
    10    13    14    1
    11    14    15    2
    12    14    16   am
    13    16    17    1
    14    17    18    1
    15    18    19    1
    16    19    20    1
    17    20    21    1
    18    21    22    1
    19    22    23    1
    20    10    11    1
    21    11    12    1
    22     5     6    1
    23     6    25    1
    24    25    26    2
    25    25    27    2
    26    25    28    1
    27    28    29   ar
    28    29    30   ar
    29    30    31   ar
    30    31    32    1
    31    31    33   ar
    32    33    34   ar
    33     6     1    1
    34    34    28   ar
    35    12    10    1
    36    23    16    1
    37    22    18    1
    38    20    24    1
@<TRIPOS>MOLECULE
*****
 34 38 0 0 0
SMALL
GASTEIGER

@<TRIPOS>ATOM
      1 C          60.8601   87.1707    8.2276 C.3     1  UNL1        0.1092
      2 C          60.1581   88.0812    7.2642 C.3     1  UNL1        0.1598
      3 O          59.7016   89.4382    7.7114 O.3     1  UNL1       -0.3507
      4 C          59.9470   89.8848    9.1222 C.3     1  UNL1        0.1634
      5 C          60.6490   88.9744   10.0857 C.3     1  UNL1        0.1455
      6 N          61.1055   87.6174    9.6384 N.3     1  UNL1       -0.1499
      7 C          62.7325   85.3813    8.0221 C.3     1  UNL1        0.0015
      8 C          61.3166   85.8138    7.7804 C.3     1  UNL1        0.0189
      9 C          60.3573   84.8891    7.0914 C.3     1  UNL1        0.0015
     10 C          60.8944   89.4210   11.4965 C.3     1  UNL1        0.1550
     11 C          59.4799   89.5679   11.9732 C.3     1  UNL1        0.0453
     12 C          60.6191   89.8647   12.9027 C.3     1  UNL1        0.0453
     13 O          62.3944   89.4292   11.5098 O.3     1  UNL1       -0.4403
     14 C          63.1407   90.6807   11.1535 C.2     1  UNL1        0.4047
     15 O          62.9265   91.3269    9.8169 O.2     1  UNL1       -0.2262
     16 N          64.1012   91.2860   12.1338 N.am    1  UNL1       -0.2459
     17 C          64.4172   90.7554   13.5008 C.3     1  UNL1        0.0981
     18 C          65.4256   91.6696   14.1311 C.3     1  UNL1        0.0387
     19 C          66.2441   91.9067   15.3656 C.3     1  UNL1        0.0703
     20 N          67.0572   93.1489   15.1511 N.3     1  UNL1       -0.2974
     21 C          66.7412   93.6794   13.7841 C.3     1  UNL1        0.0703
     22 C          65.7328   92.7652   13.1538 C.3     1  UNL1        0.0387
     23 C          64.9142   92.5281   11.9194 C.3     1  UNL1        0.0981
     24 H          68.0509   92.9275   15.2152 H       1  UNL1        0.1232
     25 S          61.8075   86.7070   10.6019 S.O2    1  UNL1        0.0635
     26 O          63.1329   87.2061   10.1080 O.2     1  UNL1       -0.1528
     27 O          60.8029   86.0728   11.2432 O.2     1  UNL1       -0.1528
     28 C          62.5095   85.7966   11.5655 C.ar    1  UNL1        0.1223
     29 C          63.2155   86.3684   12.7590 C.ar    1  UNL1        0.0208
     30 C          63.9175   85.4580   13.7225 C.ar    1  UNL1        0.0128
     31 C          63.9134   83.9757   13.4926 C.ar    1  UNL1        0.0578
     32 CL         64.6154   83.0653   14.4561 Cl      1  UNL1       -0.0822
     33 C          63.2074   83.4039   12.2990 C.ar    1  UNL1        0.0128
     34 C          62.5054   84.3143   11.3355 C.ar    1  UNL1        0.0208
@<TRIPOS>BOND
     1     7     8    1
     2     8     9    1
     3     1     8    1
     4     1     2    1
     5     2     3    1
     6     3     4    1
     7     4     5    1
     8     5    10    1
     9    10    13    1
    10    13    14    1
    11    14    15    2
    12    14    16   am
    13    16    17    1
    14    17    18    1
    15    18    19    1
    16    19    20    1
    17    20    21    1
    18    21    22    1
    19    22    23    1
    20    10    11    1
    21    11    12    1
    22     5     6    1
    23     6    25    1
    24    25    26    2
    25    25    27    2
    26    25    28    1
    27    28    29   ar
    28    29    30   ar
    29    30    31   ar
    30    31    32    1
    31    31    33   ar
    32    33    34   ar
    33     6     1    1
    34    34    28   ar
    35    12    10    1
    36    23    16    1
    37    22    18    1
    38    20    24    1
@<TRIPOS>MOLECULE
*****
 34 38 0 0 0
SMALL
GASTEIGER

@<TRIPOS>ATOM
      1 C          60.9192   86.8528    7.9623 C.3     1  UNL1        0.1092
      2 C          60.1651   87.5525    6.8706 C.3     1  UNL1        0.1598
      3 O          59.4229   88.8219    7.1662 O.3     1  UNL1       -0.3507
      4 C          59.4347   89.3919    8.5536 C.3     1  UNL1        0.1634
      5 C          60.1888   88.6924    9.6454 C.3     1  UNL1        0.1455
      6 N          60.9311   87.4229    9.3497 N.3     1  UNL1       -0.1499
      7 C          61.0028   84.4982    6.8675 C.3     1  UNL1        0.0015
      8 C          61.6614   85.5834    7.6666 C.3     1  UNL1        0.0189
      9 C          63.0623   85.3991    8.1701 C.3     1  UNL1        0.0015
     10 C          60.2007   89.2623   11.0329 C.3     1  UNL1        0.1550
     11 C          59.0949   88.4610   11.6532 C.3     1  UNL1        0.0453
     12 C          59.8272   89.4853   12.4684 C.3     1  UNL1        0.0453
     13 O          61.3107   90.2617   10.8943 O.3     1  UNL1       -0.4403
     14 C          62.3069   90.4345   12.0024 C.2     1  UNL1        0.4047
     15 O          62.0717   89.7798   13.3313 O.2     1  UNL1       -0.2262
     16 N          63.5384   91.2620   11.7815 N.am    1  UNL1       -0.2459
     17 C          63.9068   91.9734   10.5135 C.3     1  UNL1        0.0981
     18 C          65.2137   92.6744   10.7382 C.3     1  UNL1        0.0387
     19 C          66.2491   93.5474   10.0933 C.3     1  UNL1        0.0703
     20 N          67.3284   93.8087   11.1018 N.3     1  UNL1       -0.2974
     21 C          66.9600   93.0972   12.3698 C.3     1  UNL1        0.0703
     22 C          65.6531   92.3962   12.1451 C.3     1  UNL1        0.0387
     23 C          64.6176   91.5233   12.7899 C.3     1  UNL1        0.0981
     24 H          67.4037   94.8108   11.2764 H       1  UNL1        0.1232
     25 S          61.6852   86.7234   10.4415 S.O2    1  UNL1        0.0635
     26 O          62.8000   87.7181   10.3088 O.2     1  UNL1       -0.1528
     27 O          60.8759   85.7022   10.7952 O.2     1  UNL1       -0.1528
     28 C          62.4393   86.0238   11.5333 C.ar    1  UNL1        0.1223
     29 C          62.4794   84.5250   11.5758 C.ar    1  UNL1        0.0208
     30 C          63.2335   83.8255   12.6675 C.ar    1  UNL1        0.0128
     31 C          63.9475   84.6249   13.7169 C.ar    1  UNL1        0.0578
     32 CL         64.7016   83.9253   14.8087 Cl      1  UNL1       -0.0822
     33 C          63.9074   86.1237   13.6744 C.ar    1  UNL1        0.0128
     34 C          63.1533   86.8232   12.5827 C.ar    1  UNL1        0.0208
@<TRIPOS>BOND
     1     7     8    1
     2     8     9    1
     3     1     8    1
     4     1     2    1
     5     2     3    1
     6     3     4    1
     7     4     5    1
     8     5    10    1
     9    10    13    1
    10    13    14    1
    11    14    15    2
    12    14    16   am
    13    16    17    1
    14    17    18    1
    15    18    19    1
    16    19    20    1
    17    20    21    1
    18    21    22    1
    19    22    23    1
    20    10    11    1
    21    11    12    1
    22     5     6    1
    23     6    25    1
    24    25    26    2
    25    25    27    2
    26    25    28    1
    27    28    29   ar
    28    29    30   ar
    29    30    31   ar
    30    31    32    1
    31    31    33   ar
    32    33    34   ar
    33     6     1    1
    34    34    28   ar
    35    12    10    1
    36    23    16    1
    37    22    18    1
    38    20    24    1
@<TRIPOS>MOLECULE
*****
 34 38 0 0 0
SMALL
GASTEIGER

@<TRIPOS>ATOM
      1 C          59.3414   95.8946   -1.7403 C.3     1  UNL1        0.1092
      2 C          58.4871   96.5719   -0.7101 C.3     1  UNL1        0.1598
      3 O          59.0202   96.8017    0.6730 O.3     1  UNL1       -0.3507
      4 C          60.4077   96.3541    1.0260 C.3     1  UNL1        0.1634
      5 C          61.2621   95.6768   -0.0041 C.3     1  UNL1        0.1455
      6 N          60.7289   95.4470   -1.3873 N.3     1  UNL1       -0.1499
      7 C          59.0928   96.6574   -4.2113 C.3     1  UNL1        0.0015
      8 C          58.8083   95.6648   -3.1233 C.3     1  UNL1        0.0189
      9 C          57.9907   94.4424   -3.4185 C.3     1  UNL1        0.0015
     10 C          62.6495   95.2292    0.3488 C.3     1  UNL1        0.1550
     11 C          63.3147   96.5612    0.5303 C.3     1  UNL1        0.0453
     12 C          64.1007   95.2981    0.7222 C.3     1  UNL1        0.0453
     13 O          62.4662   93.7416    0.2898 O.3     1  UNL1       -0.4403
     14 C          62.8788   92.8884    1.4524 C.2     1  UNL1        0.4047
     15 O          64.3078   92.4556    1.5953 O.2     1  UNL1       -0.2262
     16 N          61.8623   92.4679    2.4722 N.am    1  UNL1       -0.2459
     17 C          60.4046   92.8214    2.4619 C.3     1  UNL1        0.0981
     18 C          59.7665   92.1921    3.6646 C.3     1  UNL1        0.0387
     19 C          58.4711   92.0217    4.4016 C.3     1  UNL1        0.0703
     20 N          58.7339   91.1738    5.6108 N.3     1  UNL1       -0.2974
     21 C          60.1916   90.8203    5.6212 C.3     1  UNL1        0.0703
     22 C          60.8298   91.4496    4.4184 C.3     1  UNL1        0.0387
     23 C          62.1251   91.6201    3.6814 C.3     1  UNL1        0.0981
     24 H          58.1719   90.3238    5.5664 H       1  UNL1        0.1232
     25 S          61.5833   94.7697   -2.4174 S.O2    1  UNL1        0.0635
     26 O          62.2399   96.0804   -2.7347 O.2     1  UNL1       -0.1528
     27 O          61.1960   93.4774   -2.3648 O.2     1  UNL1       -0.1528
     28 C          62.4377   94.0923   -3.4476 C.ar    1  UNL1        0.1223
     29 C          62.2118   94.3635   -4.9054 C.ar    1  UNL1        0.0208
     30 C          63.0662   93.6862   -5.9356 C.ar    1  UNL1        0.0128
     31 C          64.1466   92.7376   -5.5078 C.ar    1  UNL1        0.0578
     32 CL         65.0010   92.0602   -6.5380 Cl      1  UNL1       -0.0822
     33 C          64.3725   92.4664   -4.0500 C.ar    1  UNL1        0.0128
     34 C          63.5181   93.1437   -3.0198 C.ar    1  UNL1        0.0208
@<TRIPOS>BOND
     1     7     8    1
     2     8     9    1
     3     1     8    1
     4     1     2    1
     5     2     3    1
     6     3     4    1
     7     4     5    1
     8     5    10    1
     9    10    13    1
    10    13    14    1
    11    14    15    2
    12    14    16   am
    13    16    17    1
    14    17    18    1
    15    18    19    1
    16    19    20    1
    17    20    21    1
    18    21    22    1
    19    22    23    1
    20    10    11    1
    21    11    12    1
    22     5     6    1
    23     6    25    1
    24    25    26    2
    25    25    27    2
    26    25    28    1
    27    28    29   ar
    28    29    30   ar
    29    30    31   ar
    30    31    32    1
    31    31    33   ar
    32    33    34   ar
    33     6     1    1
    34    34    28   ar
    35    12    10    1
    36    23    16    1
    37    22    18    1
    38    20    24    1
@<TRIPOS>MOLECULE
*****
 34 38 0 0 0
SMALL
GASTEIGER

@<TRIPOS>ATOM
      1 C          57.0079   94.5633   -4.2335 C.3     1  UNL1        0.1092
      2 C          55.5516   94.3444   -3.9485 C.3     1  UNL1        0.1598
      3 O          55.0472   94.3982   -2.5370 O.3     1  UNL1       -0.3507
      4 C          55.9991   94.6709   -1.4102 C.3     1  UNL1        0.1634
      5 C          57.4554   94.8898   -1.6951 C.3     1  UNL1        0.1455
      6 N          57.9598   94.8360   -3.1068 N.3     1  UNL1       -0.1499
      7 C          57.6418   95.7725   -6.4440 C.3     1  UNL1        0.0015
      8 C          57.5123   94.5095   -5.6451 C.3     1  UNL1        0.0189
      9 C          57.8873   93.1927   -6.2578 C.3     1  UNL1        0.0015
     10 C          58.4074   95.1625   -0.5684 C.3     1  UNL1        0.1550
     11 C          58.3447   96.6607   -0.5312 C.3     1  UNL1        0.0453
     12 C          59.2228   95.9225    0.4353 C.3     1  UNL1        0.0453
     13 O          58.8007   93.7589   -0.2144 O.3     1  UNL1       -0.4403
     14 C          59.7476   93.5094    0.9219 C.2     1  UNL1        0.4047
     15 O          59.2235   93.0345    2.2446 O.2     1  UNL1       -0.2262
     16 N          61.2188   93.7347    0.7354 N.am    1  UNL1       -0.2459
     17 C          61.8862   94.2056   -0.5228 C.3     1  UNL1        0.0981
     18 C          63.3607   94.2906   -0.2615 C.3     1  UNL1        0.0387
     19 C          64.6845   94.6342   -0.8776 C.3     1  UNL1        0.0703
     20 N          65.7467   94.4283    0.1613 N.3     1  UNL1       -0.2974
     21 C          65.0794   93.9575    1.4195 C.3     1  UNL1        0.0703
     22 C          63.6048   93.8724    1.1582 C.3     1  UNL1        0.0387
     23 C          62.2810   93.5289    1.7742 C.3     1  UNL1        0.0981
     24 H          66.2348   95.3067    0.3362 H       1  UNL1        0.1232
     25 S          59.4162   95.0549   -3.3917 S.O2    1  UNL1        0.0635
     26 O          59.6643   93.5819   -3.2551 O.2     1  UNL1       -0.1528
     27 O          59.5167   96.3889   -3.5730 O.2     1  UNL1       -0.1528
     28 C          60.8725   95.2738   -3.6765 C.ar    1  UNL1        0.1223
     29 C          61.6957   94.1678   -4.2673 C.ar    1  UNL1        0.0208
     30 C          63.1520   94.3867   -4.5522 C.ar    1  UNL1        0.0128
     31 C          63.7852   95.7116   -4.2463 C.ar    1  UNL1        0.0578
     32 CL         65.2416   95.9305   -4.5311 Cl      1  UNL1       -0.0822
     33 C          62.9620   96.8176   -3.6555 C.ar    1  UNL1        0.0128
     34 C          61.5057   96.5987   -3.3706 C.ar    1  UNL1        0.0208
@<TRIPOS>BOND
     1     7     8    1
     2     8     9    1
     3     1     8    1
     4     1     2    1
     5     2     3    1
     6     3     4    1
     7     4     5    1
     8     5    10    1
     9    10    13    1
    10    13    14    1
    11    14    15    2
    12    14    16   am
    13    16    17    1
    14    17    18    1
    15    18    19    1
    16    19    20    1
    17    20    21    1
    18    21    22    1
    19    22    23    1
    20    10    11    1
    21    11    12    1
    22     5     6    1
    23     6    25    1
    24    25    26    2
    25    25    27    2
    26    25    28    1
    27    28    29   ar
    28    29    30   ar
    29    30    31   ar
    30    31    32    1
    31    31    33   ar
    32    33    34   ar
    33     6     1    1
    34    34    28   ar
    35    12    10    1
    36    23    16    1
    37    22    18    1
    38    20    24    1
@<TRIPOS>MOLECULE
*****
 34 38 0 0 0
SMALL
GASTEIGER

@<TRIPOS>ATOM
      1 C          63.5248   85.3302   12.6022 C.3     1  UNL1        0.1092
      2 C          64.4031   84.9429   13.7549 C.3     1  UNL1        0.1598
      3 O          64.8603   85.9846   14.7325 O.3     1  UNL1       -0.3507
      4 C          64.4394   87.4136   14.5575 C.3     1  UNL1        0.1634
      5 C          63.5611   87.8010   13.4048 C.3     1  UNL1        0.1455
      6 N          63.1039   86.7592   12.4272 N.3     1  UNL1       -0.1499
      7 C          62.1401   83.1972   12.0704 C.3     1  UNL1        0.0015
      8 C          63.0676   84.2885   11.6246 C.3     1  UNL1        0.0189
      9 C          63.5379   84.3381   10.2011 C.3     1  UNL1        0.0015
     10 C          63.1402   89.2300   13.2298 C.3     1  UNL1        0.1550
     11 C          62.1105   89.3331   14.3155 C.3     1  UNL1        0.0453
     12 C          62.4124   90.5225   13.4528 C.3     1  UNL1        0.0453
     13 O          64.0237   89.6231   12.0831 O.3     1  UNL1       -0.4403
     14 C          64.4760   91.0460   11.9384 C.2     1  UNL1        0.4047
     15 O          64.0138   91.8647   10.7696 O.2     1  UNL1       -0.2262
     16 N          65.3905   91.6502   12.9624 N.am    1  UNL1       -0.2459
     17 C          65.9327   90.9583   14.1779 C.3     1  UNL1        0.0981
     18 C          66.8006   91.9328   14.9174 C.3     1  UNL1        0.0387
     19 C          67.6721   92.1075   16.1257 C.3     1  UNL1        0.0703
     20 N          68.2050   93.5096   16.1141 N.3     1  UNL1       -0.2974
     21 C          67.6628   94.2015   14.8986 C.3     1  UNL1        0.0703
     22 C          66.7949   93.2270   14.1591 C.3     1  UNL1        0.0387
     23 C          65.9234   93.0522   12.9508 C.3     1  UNL1        0.0981
     24 H          69.2242   93.4923   16.0768 H       1  UNL1        0.1232
     25 S          62.2257   87.1466   11.2745 S.O2    1  UNL1        0.0635
     26 O          61.0103   86.8199   12.0907 O.2     1  UNL1       -0.1528
     27 O          63.0957   87.5162   10.3106 O.2     1  UNL1       -0.1528
     28 C          61.3474   87.5339   10.1219 C.ar    1  UNL1        0.1223
     29 C          61.1556   88.9814    9.7784 C.ar    1  UNL1        0.0208
     30 C          60.2774   89.3688    8.6257 C.ar    1  UNL1        0.0128
     31 C          59.5909   88.3086    7.8165 C.ar    1  UNL1        0.0578
     32 CL         58.7127   88.6960    6.6638 Cl      1  UNL1       -0.0822
     33 C          59.7827   86.8611    8.1599 C.ar    1  UNL1        0.0128
     34 C          60.6610   86.4738    9.3126 C.ar    1  UNL1        0.0208
@<TRIPOS>BOND
     1     7     8    1
     2     8     9    1
     3     1     8    1
     4     1     2    1
     5     2     3    1
     6     3     4    1
     7     4     5    1
     8     5    10    1
     9    10    13    1
    10    13    14    1
    11    14    15    2
    12    14    16   am
    13    16    17    1
    14    17    18    1
    15    18    19    1
    16    19    20    1
    17    20    21    1
    18    21    22    1
    19    22    23    1
    20    10    11    1
    21    11    12    1
    22     5     6    1
    23     6    25    1
    24    25    26    2
    25    25    27    2
    26    25    28    1
    27    28    29   ar
    28    29    30   ar
    29    30    31   ar
    30    31    32    1
    31    31    33   ar
    32    33    34   ar
    33     6     1    1
    34    34    28   ar
    35    12    10    1
    36    23    16    1
    37    22    18    1
    38    20    24    1
@<TRIPOS>MOLECULE
*****
 34 38 0 0 0
SMALL
GASTEIGER

@<TRIPOS>ATOM
      1 C          65.1265   91.7438   12.6322 C.3     1  UNL1        0.1092
      2 C          66.1521   92.4779   13.4442 C.3     1  UNL1        0.1598
      3 O          66.3146   92.1697   14.9032 O.3     1  UNL1       -0.3507
      4 C          65.4515   91.1274   15.5503 C.3     1  UNL1        0.1634
      5 C          64.4258   90.3933   14.7384 C.3     1  UNL1        0.1455
      6 N          64.2634   90.7016   13.2794 N.3     1  UNL1       -0.1499
      7 C          63.6308   91.8662   10.5114 C.3     1  UNL1        0.0015
      8 C          64.9640   92.0520   11.1733 C.3     1  UNL1        0.0189
      9 C          66.1347   92.5460   10.3762 C.3     1  UNL1        0.0015
     10 C          63.5627   89.3511   15.3854 C.3     1  UNL1        0.1550
     11 C          62.7180   90.2227   16.2666 C.3     1  UNL1        0.0453
     12 C          62.5103   88.7372   16.2604 C.3     1  UNL1        0.0453
     13 O          64.1077   88.1174   14.7288 O.3     1  UNL1       -0.4403
     14 C          63.8727   86.7718   15.3486 C.2     1  UNL1        0.4047
     15 O          63.9205   86.6141   16.8395 O.2     1  UNL1       -0.2262
     16 N          63.5899   85.5839   14.4775 N.am    1  UNL1       -0.2459
     17 C          63.5111   85.5878   12.9796 C.3     1  UNL1        0.0981
     18 C          63.2087   84.1898   12.5277 C.3     1  UNL1        0.0387
     19 C          62.9732   83.3282   11.3226 C.3     1  UNL1        0.0703
     20 N          62.7195   81.9278   11.7965 N.3     1  UNL1       -0.2974
     21 C          62.7983   81.9239   13.2944 C.3     1  UNL1        0.0703
     22 C          63.1006   83.3219   13.7463 C.3     1  UNL1        0.0387
     23 C          63.3362   84.1835   14.9513 C.3     1  UNL1        0.0981
     24 H          63.4241   81.2990   11.4112 H       1  UNL1        0.1232
     25 S          63.2377   89.9675   12.4675 S.O2    1  UNL1        0.0635
     26 O          62.2397   91.0516   12.7480 O.2     1  UNL1       -0.1528
     27 O          63.8859   88.8608   12.0456 O.2     1  UNL1       -0.1528
     28 C          62.2121   89.2334   11.6556 C.ar    1  UNL1        0.1223
     29 C          60.7549   89.5426   11.8311 C.ar    1  UNL1        0.0208
     30 C          59.7292   88.8085   11.0193 C.ar    1  UNL1        0.0128
     31 C          60.1608   87.7651   10.0317 C.ar    1  UNL1        0.0578
     32 CL         59.1352   87.0310    9.2198 Cl      1  UNL1       -0.0822
     33 C          61.6181   87.4559    9.8562 C.ar    1  UNL1        0.0128
     34 C          62.6437   88.1900   10.6681 C.ar    1  UNL1        0.0208
@<TRIPOS>BOND
     1     7     8    1
     2     8     9    1
     3     1     8    1
     4     1     2    1
     5     2     3    1
     6     3     4    1
     7     4     5    1
     8     5    10    1
     9    10    13    1
    10    13    14    1
    11    14    15    2
    12    14    16   am
    13    16    17    1
    14    17    18    1
    15    18    19    1
    16    19    20    1
    17    20    21    1
    18    21    22    1
    19    22    23    1
    20    10    11    1
    21    11    12    1
    22     5     6    1
    23     6    25    1
    24    25    26    2
    25    25    27    2
    26    25    28    1
    27    28    29   ar
    28    29    30   ar
    29    30    31   ar
    30    31    32    1
    31    31    33   ar
    32    33    34   ar
    33     6     1    1
    34    34    28   ar
    35    12    10    1
    36    23    16    1
    37    22    18    1
    38    20    24    1
