@<TRIPOS>MOLECULE
*****
 37 41 0 0 0
SMALL
GASTEIGER

@<TRIPOS>ATOM
      1 C          64.4502   89.8025   14.2042 C.2     1  UNL1       -0.0363
      2 C          63.9880   89.6208   15.6195 C.2     1  UNL1       -0.0085
      3 C          63.4973   88.2809   16.0822 C.2     1  UNL1        0.0240
      4 C          63.0352   88.0993   17.4976 C.3     1  UNL1        0.0350
      5 C          63.4687   87.1228   15.1293 C.2     1  UNL1        0.2277
      6 N          63.0408   85.6950   15.2976 N.2     1  UNL1       -0.0345
      7 C          63.2384   84.9943   13.9861 C.2     1  UNL1        0.3649
      8 N          63.7885   85.9890   13.0074 N.2     1  UNL1       -0.0380
      9 C          63.9309   87.3045   13.7139 C.2     1  UNL1        0.2168
     10 C          64.4216   88.6444   13.2513 C.3     1  UNL1        0.0997
     11 C          62.9386   83.5521   13.7031 C.3     1  UNL1        0.2250
     12 C          62.5845   83.1188   12.3114 C.2     1  UNL1        0.0436
     13 C          62.2847   81.6765   12.0284 C.2     1  UNL1        0.0288
     14 C          62.3390   80.6676   13.1371 C.2     1  UNL1        0.0896
     15 N          62.6930   81.1009   14.5288 N.am    1  UNL1       -0.1770
     16 C          62.9929   82.5432   14.8117 C.2     1  UNL1        0.2627
     17 O          63.3469   82.9765   16.2034 O.2     1  UNL1       -0.2719
     18 N          62.5302   84.1276   11.2027 N.pl3   1  UNL1       -0.3335
     19 H          61.9045   84.8857   11.2572 H       1  UNL1        0.1466
     20 C          63.4293   83.9815   10.0109 C.3     1  UNL1        0.1136
     21 C          63.2230   84.8492    8.8049 C.3     1  UNL1        0.1486
     22 N          62.1742   85.9215    8.8230 N.ar    1  UNL1       -0.2468
     23 C          61.0054   86.0274    7.8889 C.ar    1  UNL1        0.1081
     24 C          60.2190   87.2475    8.2670 C.ar    1  UNL1        0.0972
     25 CL         58.9692   87.7341    7.5952 Cl      1  UNL1       -0.0789
     26 C          60.9016   87.8956    9.4348 C.ar    1  UNL1        0.1330
     27 N          62.1101   87.0760    9.7785 N.ar    1  UNL1       -0.1667
     28 N          65.9224   93.8220   12.8163 N.3     1  UNL1       -0.2706
     29 C          66.2424   93.3434   14.2014 C.3     1  UNL1        0.0725
     30 C          65.7516   92.0035   14.6640 C.3     1  UNL1        0.0214
     31 C          64.9409   91.1424   13.7415 C.3     1  UNL1        0.0215
     32 C          64.6209   91.6210   12.3565 C.3     1  UNL1        0.0214
     33 C          65.1117   92.9609   11.8938 C.3     1  UNL1        0.0725
     34 C          66.4132   95.1619   12.3537 C.3     1  UNL1        0.1046
     35 C          66.4625   95.4774   10.8881 C.3     1  UNL1        0.1595
     36 C          67.5876   93.9023    9.1551 C.3     1  UNL1        0.1742
     37 O          67.6609   95.0839   10.0762 O.3     1  UNL1       -0.3496
@<TRIPOS>BOND
     1    36    37    1
     2    37    35    1
     3    35    34    1
     4    34    28    1
     5    28    29    1
     6    29    30    1
     7    30    31    1
     8    31     1    1
     9     1     2    2
    10     2     3    1
    11     3     4    1
    12     3     5    2
    13     5     6    1
    14     6     7    2
    15     7    11    1
    16    11    12    1
    17    12    18    1
    18    18    20    1
    19    20    21    1
    20    21    22    1
    21    22    23   ar
    22    23    24   ar
    23    24    25    1
    24    24    26   ar
    25    26    27   ar
    26    12    13    2
    27    13    14    1
    28    14    15    2
    29    15    16    1
    30    16    17    2
    31     7     8    1
    32     8     9    2
    33     9    10    1
    34    31    32    1
    35    32    33    1
    36    33    28    1
    37    10     1    1
    38     9     5    1
    39    16    11    1
    40    27    22   ar
    41    18    19    1
@<TRIPOS>MOLECULE
*****
 37 41 0 0 0
SMALL
GASTEIGER

@<TRIPOS>ATOM
      1 C          62.9839   85.0605   12.2567 C.2     1  UNL1       -0.0363
      2 C          62.3587   85.9321   11.2083 C.2     1  UNL1       -0.0085
      3 C          62.4458   87.4251   11.3245 C.2     1  UNL1        0.0240
      4 C          61.8206   88.2968   10.2760 C.3     1  UNL1        0.0350
      5 C          63.1582   88.0464   12.4892 C.2     1  UNL1        0.2277
      6 N          63.4040   89.4766   12.8685 N.2     1  UNL1       -0.0345
      7 C          64.1811   89.4889   14.1515 C.2     1  UNL1        0.3649
      8 N          64.4156   88.0662   14.5650 N.2     1  UNL1       -0.0380
      9 C          63.7834   87.1747   13.5377 C.2     1  UNL1        0.2168
     10 C          63.6962   85.6817   13.4214 C.3     1  UNL1        0.0997
     11 C          64.6427   90.7095   14.8910 C.3     1  UNL1        0.2250
     12 C          65.7137   91.5811   14.3052 C.2     1  UNL1        0.0436
     13 C          66.1753   92.8018   15.0448 C.2     1  UNL1        0.0288
     14 C          65.5659   93.1508   16.3703 C.2     1  UNL1        0.0896
     15 N          64.4949   92.2792   16.9561 N.am    1  UNL1       -0.1770
     16 C          64.0333   91.0586   16.2165 C.2     1  UNL1        0.2627
     17 O          62.9623   90.1870   16.8023 O.2     1  UNL1       -0.2719
     18 N          66.3232   91.2322   12.9798 N.pl3   1  UNL1       -0.3335
     19 H          65.9737   90.4709   12.4624 H       1  UNL1        0.1466
     20 C          67.4650   92.0430   12.4425 C.3     1  UNL1        0.1136
     21 C          67.5055   92.4101   10.9887 C.3     1  UNL1        0.1486
     22 N          67.2839   93.8327   10.5679 N.ar    1  UNL1       -0.2468
     23 C          67.6673   94.4314    9.2471 C.ar    1  UNL1        0.1081
     24 C          67.2603   95.8752    9.2571 C.ar    1  UNL1        0.0972
     25 CL         67.4543   96.8536    8.1367 Cl      1  UNL1       -0.0789
     26 C          66.6254   96.1687   10.5839 C.ar    1  UNL1        0.1330
     27 N          66.6400   94.9064   11.3941 N.ar    1  UNL1       -0.1667
     28 N          62.7224   80.5816   11.9082 N.3     1  UNL1       -0.2706
     29 C          62.2529   81.2653   13.1581 C.3     1  UNL1        0.0725
     30 C          62.3401   82.7583   13.2742 C.3     1  UNL1        0.0214
     31 C          62.8967   83.5675   12.1405 C.3     1  UNL1        0.0215
     32 C          63.3662   82.8838   10.8907 C.3     1  UNL1        0.0214
     33 C          63.2791   81.3908   10.7745 C.3     1  UNL1        0.0725
     34 C          62.6353   79.0886   11.7921 C.3     1  UNL1        0.1046
     35 C          62.7640   78.4320   10.4496 C.3     1  UNL1        0.1595
     36 C          64.3188   76.5637    9.5321 C.3     1  UNL1        0.1742
     37 O          63.1377   76.9823   10.3566 O.3     1  UNL1       -0.3496
@<TRIPOS>BOND
     1    36    37    1
     2    37    35    1
     3    35    34    1
     4    34    28    1
     5    28    29    1
     6    29    30    1
     7    30    31    1
     8    31     1    1
     9     1     2    2
    10     2     3    1
    11     3     4    1
    12     3     5    2
    13     5     6    1
    14     6     7    2
    15     7    11    1
    16    11    12    1
    17    12    18    1
    18    18    20    1
    19    20    21    1
    20    21    22    1
    21    22    23   ar
    22    23    24   ar
    23    24    25    1
    24    24    26   ar
    25    26    27   ar
    26    12    13    2
    27    13    14    1
    28    14    15    2
    29    15    16    1
    30    16    17    2
    31     7     8    1
    32     8     9    2
    33     9    10    1
    34    31    32    1
    35    32    33    1
    36    33    28    1
    37    10     1    1
    38     9     5    1
    39    16    11    1
    40    27    22   ar
    41    18    19    1
@<TRIPOS>MOLECULE
*****
 37 41 0 0 0
SMALL
GASTEIGER

@<TRIPOS>ATOM
      1 C          59.6935   90.0745    6.4003 C.2     1  UNL1       -0.0363
      2 C          58.2823   90.4941    6.1137 C.2     1  UNL1       -0.0085
      3 C          57.9902   91.4030    4.9567 C.2     1  UNL1        0.0240
      4 C          56.5789   91.8226    4.6701 C.3     1  UNL1        0.0350
      5 C          59.1096   91.8923    4.0863 C.2     1  UNL1        0.2277
      6 N          59.1278   92.7897    2.8845 N.2     1  UNL1       -0.0345
      7 C          60.5504   92.9247    2.4284 C.2     1  UNL1        0.3649
      8 N          61.4114   92.1108    3.3482 N.2     1  UNL1       -0.0380
      9 C          60.5209   91.4727    4.3729 C.2     1  UNL1        0.2168
     10 C          60.8129   90.5638    5.5299 C.3     1  UNL1        0.0997
     11 C          61.0281   93.7320    1.2579 C.3     1  UNL1        0.2250
     12 C          60.0873   94.0542    0.1349 C.2     1  UNL1        0.0436
     13 C          60.5651   94.8614   -1.0356 C.2     1  UNL1        0.0288
     14 C          61.9837   95.3465   -1.0832 C.2     1  UNL1        0.0896
     15 N          62.9245   95.0244    0.0398 N.am    1  UNL1       -0.1770
     16 C          62.4467   94.2171    1.2103 C.2     1  UNL1        0.2627
     17 O          63.3875   93.8949    2.3332 O.2     1  UNL1       -0.2719
     18 N          58.6687   93.5691    0.1824 N.pl3   1  UNL1       -0.3335
     19 H          58.0704   93.8674    0.9052 H       1  UNL1        0.1466
     20 C          58.1616   92.6296   -0.8712 C.3     1  UNL1        0.1136
     21 C          57.3369   93.1537   -2.0093 C.3     1  UNL1        0.1486
     22 N          56.3745   94.2814   -1.7811 N.ar    1  UNL1       -0.2468
     23 C          54.8854   94.2175   -1.9504 C.ar    1  UNL1        0.1081
     24 C          54.3228   95.5676   -1.6175 C.ar    1  UNL1        0.0972
     25 CL         52.8733   95.9520   -1.6533 Cl      1  UNL1       -0.0789
     26 C          55.4641   96.4658   -1.2424 C.ar    1  UNL1        0.1330
     27 N          56.7321   95.6708   -1.3435 N.ar    1  UNL1       -0.1667
     28 N          60.5694   87.3476    9.8712 N.3     1  UNL1       -0.2706
     29 C          59.9869   86.7889    8.6069 C.3     1  UNL1        0.0725
     30 C          59.6949   87.6979    7.4499 C.3     1  UNL1        0.0214
     31 C          59.9855   89.1655    7.5573 C.3     1  UNL1        0.0215
     32 C          60.5680   89.7242    8.8215 C.3     1  UNL1        0.0214
     33 C          60.8600   88.8152    9.9786 C.3     1  UNL1        0.0725
     34 C          60.8614   86.4386   11.0281 C.3     1  UNL1        0.1046
     35 C          62.2534   85.9235   11.2444 C.3     1  UNL1        0.1595
     36 C          63.5029   84.2941   12.8363 C.3     1  UNL1        0.1742
     37 O          62.7085   85.5486   12.6238 O.3     1  UNL1       -0.3496
@<TRIPOS>BOND
     1    36    37    1
     2    37    35    1
     3    35    34    1
     4    34    28    1
     5    28    29    1
     6    29    30    1
     7    30    31    1
     8    31     1    1
     9     1     2    2
    10     2     3    1
    11     3     4    1
    12     3     5    2
    13     5     6    1
    14     6     7    2
    15     7    11    1
    16    11    12    1
    17    12    18    1
    18    18    20    1
    19    20    21    1
    20    21    22    1
    21    22    23   ar
    22    23    24   ar
    23    24    25    1
    24    24    26   ar
    25    26    27   ar
    26    12    13    2
    27    13    14    1
    28    14    15    2
    29    15    16    1
    30    16    17    2
    31     7     8    1
    32     8     9    2
    33     9    10    1
    34    31    32    1
    35    32    33    1
    36    33    28    1
    37    10     1    1
    38     9     5    1
    39    16    11    1
    40    27    22   ar
    41    18    19    1
@<TRIPOS>MOLECULE
*****
 37 41 0 0 0
SMALL
GASTEIGER

@<TRIPOS>ATOM
      1 C          63.5328   85.8355   14.8606 C.2     1  UNL1       -0.0363
      2 C          63.1451   86.4202   16.1864 C.2     1  UNL1       -0.0085
      3 C          63.3494   87.8827   16.4498 C.2     1  UNL1        0.0240
      4 C          62.9618   88.4674   17.7757 C.3     1  UNL1        0.0350
      5 C          63.9413   88.7605   15.3872 C.2     1  UNL1        0.2277
      6 N          64.2587   90.2263   15.3581 N.2     1  UNL1       -0.0345
      7 C          64.8425   90.5475   14.0142 C.2     1  UNL1        0.3649
      8 N          64.8859   89.2802   13.2127 N.2     1  UNL1       -0.0380
      9 C          64.3289   88.1758   14.0613 C.2     1  UNL1        0.2168
     10 C          64.1247   86.7133   13.7980 C.3     1  UNL1        0.0997
     11 C          65.3022   91.8987   13.5527 C.3     1  UNL1        0.2250
     12 C          65.0780   92.3221   12.1313 C.2     1  UNL1        0.0436
     13 C          65.5377   93.6733   11.6699 C.2     1  UNL1        0.0288
     14 C          66.2216   94.6011   12.6298 C.2     1  UNL1        0.0896
     15 N          66.4457   94.1777   14.0512 N.am    1  UNL1       -0.1770
     16 C          65.9860   92.8265   14.5126 C.2     1  UNL1        0.2627
     17 O          66.2102   92.4031   15.9341 O.2     1  UNL1       -0.2719
     18 N          64.3942   91.3943   11.1713 N.pl3   1  UNL1       -0.3335
     19 H          64.9196   90.9175   10.4887 H       1  UNL1        0.1466
     20 C          62.9099   91.1931   11.2511 C.3     1  UNL1        0.1136
     21 C          62.1659   90.6255   10.0788 C.3     1  UNL1        0.1486
     22 N          61.7473   89.1851   10.0822 N.ar    1  UNL1       -0.2468
     23 C          62.2231   88.1310   11.0375 C.ar    1  UNL1        0.1081
     24 C          61.5493   86.8403   10.6766 C.ar    1  UNL1        0.0972
     25 CL         61.7351   85.5242   11.3719 Cl      1  UNL1       -0.0789
     26 C          60.6572   87.0967    9.4983 C.ar    1  UNL1        0.1330
     27 N          60.7796   88.5459    9.1309 N.ar    1  UNL1       -0.1667
     28 N          62.9198   81.4480   14.0706 N.3     1  UNL1       -0.2706
     29 C          61.8148   82.2628   14.6748 C.3     1  UNL1        0.0725
     30 C          62.0192   83.7253   14.9381 C.3     1  UNL1        0.0214
     31 C          63.3285   84.3730   14.5973 C.3     1  UNL1        0.0215
     32 C          64.4334   83.5582   13.9931 C.3     1  UNL1        0.0214
     33 C          64.2292   82.0956   13.7297 C.3     1  UNL1        0.0725
     34 C          62.7155   79.9855   13.8073 C.3     1  UNL1        0.1046
     35 C          62.4273   79.5072   12.4151 C.3     1  UNL1        0.1595
     36 C          62.8891   79.7141    9.8668 C.3     1  UNL1        0.1742
     37 O          62.8613   80.3264   11.2358 O.3     1  UNL1       -0.3496
@<TRIPOS>BOND
     1    36    37    1
     2    37    35    1
     3    35    34    1
     4    34    28    1
     5    28    29    1
     6    29    30    1
     7    30    31    1
     8    31     1    1
     9     1     2    2
    10     2     3    1
    11     3     4    1
    12     3     5    2
    13     5     6    1
    14     6     7    2
    15     7    11    1
    16    11    12    1
    17    12    18    1
    18    18    20    1
    19    20    21    1
    20    21    22    1
    21    22    23   ar
    22    23    24   ar
    23    24    25    1
    24    24    26   ar
    25    26    27   ar
    26    12    13    2
    27    13    14    1
    28    14    15    2
    29    15    16    1
    30    16    17    2
    31     7     8    1
    32     8     9    2
    33     9    10    1
    34    31    32    1
    35    32    33    1
    36    33    28    1
    37    10     1    1
    38     9     5    1
    39    16    11    1
    40    27    22   ar
    41    18    19    1
@<TRIPOS>MOLECULE
*****
 37 41 0 0 0
SMALL
GASTEIGER

@<TRIPOS>ATOM
      1 C          62.2676   93.4324    1.3329 C.2     1  UNL1       -0.0363
      2 C          63.1806   94.5807    1.6451 C.2     1  UNL1       -0.0085
      3 C          63.9860   95.2175    0.5514 C.2     1  UNL1        0.0240
      4 C          64.8990   96.3659    0.8637 C.3     1  UNL1        0.0350
      5 C          63.8782   94.7057   -0.8545 C.2     1  UNL1        0.2277
      6 N          64.5435   95.1292   -2.1304 N.2     1  UNL1       -0.0345
      7 C          64.0416   94.2424   -3.2312 C.2     1  UNL1        0.3649
      8 N          63.0662   93.2709   -2.6356 N.2     1  UNL1       -0.0380
      9 C          62.9652   93.5572   -1.1667 C.2     1  UNL1        0.2168
     10 C          62.1599   92.9206   -0.0730 C.3     1  UNL1        0.0997
     11 C          64.4443   94.3145   -4.6744 C.3     1  UNL1        0.2250
     12 C          64.1101   95.5306   -5.4865 C.2     1  UNL1        0.0436
     13 C          64.5129   95.6026   -6.9296 C.2     1  UNL1        0.0288
     14 C          65.2499   94.4586   -7.5606 C.2     1  UNL1        0.0896
     15 N          65.5841   93.2426   -6.7485 N.am    1  UNL1       -0.1770
     16 C          65.1813   93.1706   -5.3054 C.2     1  UNL1        0.2627
     17 O          65.5155   91.9545   -4.4933 O.2     1  UNL1       -0.2719
     18 N          63.3731   96.6745   -4.8556 N.pl3   1  UNL1       -0.3335
     19 H          63.8523   97.3076   -4.2734 H       1  UNL1        0.1466
     20 C          61.9061   96.8541   -5.1116 C.3     1  UNL1        0.1136
     21 C          60.9857   95.6708   -5.0618 C.3     1  UNL1        0.1486
     22 N          60.3803   95.2460   -3.7568 N.ar    1  UNL1       -0.2468
     23 C          60.4170   96.0221   -2.4737 C.ar    1  UNL1        0.1081
     24 C          59.6912   95.2262   -1.4297 C.ar    1  UNL1        0.0972
     25 CL         59.4866   95.6278    0.0010 Cl      1  UNL1       -0.0789
     26 C          59.2059   93.9583   -2.0675 C.ar    1  UNL1        0.1330
     27 N          59.6318   93.9705   -3.5058 N.ar    1  UNL1       -0.1667
     28 N          59.8514   91.5223    4.6137 N.3     1  UNL1       -0.2706
     29 C          59.1984   92.4800    3.6616 C.3     1  UNL1        0.0725
     30 C          60.0038   93.1166    2.5680 C.3     1  UNL1        0.0214
     31 C          61.4622   92.7956    2.4265 C.3     1  UNL1        0.0215
     32 C          62.1152   91.8380    3.3785 C.3     1  UNL1        0.0214
     33 C          61.3098   91.2013    4.4722 C.3     1  UNL1        0.0725
     34 C          59.0460   90.8856    5.7073 C.3     1  UNL1        0.1046
     35 C          59.3923   89.5079    6.1889 C.3     1  UNL1        0.1595
     36 C          59.7125   87.8268    8.1438 C.3     1  UNL1        0.1742
     37 O          59.4778   89.2271    7.6600 O.3     1  UNL1       -0.3496
@<TRIPOS>BOND
     1    36    37    1
     2    37    35    1
     3    35    34    1
     4    34    28    1
     5    28    29    1
     6    29    30    1
     7    30    31    1
     8    31     1    1
     9     1     2    2
    10     2     3    1
    11     3     4    1
    12     3     5    2
    13     5     6    1
    14     6     7    2
    15     7    11    1
    16    11    12    1
    17    12    18    1
    18    18    20    1
    19    20    21    1
    20    21    22    1
    21    22    23   ar
    22    23    24   ar
    23    24    25    1
    24    24    26   ar
    25    26    27   ar
    26    12    13    2
    27    13    14    1
    28    14    15    2
    29    15    16    1
    30    16    17    2
    31     7     8    1
    32     8     9    2
    33     9    10    1
    34    31    32    1
    35    32    33    1
    36    33    28    1
    37    10     1    1
    38     9     5    1
    39    16    11    1
    40    27    22   ar
    41    18    19    1
@<TRIPOS>MOLECULE
*****
 37 41 0 0 0
SMALL
GASTEIGER

@<TRIPOS>ATOM
      1 C          59.6839   89.9909    6.4796 C.2     1  UNL1       -0.0363
      2 C          58.2612   90.3853    6.2145 C.2     1  UNL1       -0.0085
      3 C          57.9363   91.2943    5.0664 C.2     1  UNL1        0.0240
      4 C          56.5135   91.6886    4.8014 C.3     1  UNL1        0.0350
      5 C          59.0342   91.8088    4.1833 C.2     1  UNL1        0.2277
      6 N          59.0189   92.7124    2.9861 N.2     1  UNL1       -0.0345
      7 C          60.4322   92.8764    2.5112 C.2     1  UNL1        0.3649
      8 N          61.3210   92.0743    3.4149 N.2     1  UNL1       -0.0380
      9 C          60.4569   91.4145    4.4483 C.2     1  UNL1        0.2168
     10 C          60.7818   90.5055    5.5965 C.3     1  UNL1        0.0997
     11 C          60.8786   93.6983    1.3384 C.3     1  UNL1        0.2250
     12 C          59.9270   93.9784    0.2133 C.2     1  UNL1        0.0436
     13 C          60.3734   94.8003   -0.9595 C.2     1  UNL1        0.0288
     14 C          61.7713   95.3421   -1.0070 C.2     1  UNL1        0.0896
     15 N          62.7229   95.0620    0.1181 N.am    1  UNL1       -0.1770
     16 C          62.2765   94.2401    1.2908 C.2     1  UNL1        0.2627
     17 O          63.2281   93.9600    2.4160 O.2     1  UNL1       -0.2719
     18 N          58.5291   93.4366    0.2608 N.pl3   1  UNL1       -0.3335
     19 H          58.2154   92.9530    1.0589 H       1  UNL1        0.1466
     20 C          57.6089   93.6316   -0.9077 C.3     1  UNL1        0.1136
     21 C          57.0023   92.4422   -1.5913 C.3     1  UNL1        0.1486
     22 N          56.6193   92.5239   -3.0392 N.ar    1  UNL1       -0.2468
     23 C          56.1079   91.3927   -3.8811 C.ar    1  UNL1        0.1081
     24 C          55.8531   91.9208   -5.2618 C.ar    1  UNL1        0.0972
     25 CL         55.3353   91.1301   -6.4265 Cl      1  UNL1       -0.0789
     26 C          56.2069   93.3783   -5.2732 C.ar    1  UNL1        0.1330
     27 N          56.6805   93.7512   -3.8996 N.ar    1  UNL1       -0.1667
     28 N          60.6588   87.2641    9.9240 N.3     1  UNL1       -0.2706
     29 C          60.9370   88.7343   10.0293 C.3     1  UNL1        0.0725
     30 C          60.6120   89.6432    8.8812 C.3     1  UNL1        0.0214
     31 C          60.0089   89.0819    7.6277 C.3     1  UNL1        0.0215
     32 C          59.7307   87.6118    7.5224 C.3     1  UNL1        0.0214
     33 C          60.0556   86.7028    8.6706 C.3     1  UNL1        0.0725
     34 C          60.9838   86.3552   11.0722 C.3     1  UNL1        0.1046
     35 C          62.4143   86.0891   11.4365 C.3     1  UNL1        0.1595
     36 C          63.4229   88.1016   12.7337 C.3     1  UNL1        0.1742
     37 O          62.9871   86.6668   12.6968 O.3     1  UNL1       -0.3496
@<TRIPOS>BOND
     1    36    37    1
     2    37    35    1
     3    35    34    1
     4    34    28    1
     5    28    29    1
     6    29    30    1
     7    30    31    1
     8    31     1    1
     9     1     2    2
    10     2     3    1
    11     3     4    1
    12     3     5    2
    13     5     6    1
    14     6     7    2
    15     7    11    1
    16    11    12    1
    17    12    18    1
    18    18    20    1
    19    20    21    1
    20    21    22    1
    21    22    23   ar
    22    23    24   ar
    23    24    25    1
    24    24    26   ar
    25    26    27   ar
    26    12    13    2
    27    13    14    1
    28    14    15    2
    29    15    16    1
    30    16    17    2
    31     7     8    1
    32     8     9    2
    33     9    10    1
    34    31    32    1
    35    32    33    1
    36    33    28    1
    37    10     1    1
    38     9     5    1
    39    16    11    1
    40    27    22   ar
    41    18    19    1
@<TRIPOS>MOLECULE
*****
 37 41 0 0 0
SMALL
GASTEIGER

@<TRIPOS>ATOM
      1 C          60.1594   88.9055    8.3873 C.2     1  UNL1       -0.0363
      2 C          59.7069   89.3484    9.7470 C.2     1  UNL1       -0.0085
      3 C          60.0908   88.5548   10.9607 C.2     1  UNL1        0.0240
      4 C          59.6383   88.9977   12.3205 C.3     1  UNL1        0.0350
      5 C          60.9273   87.3183   10.8145 C.2     1  UNL1        0.2277
      6 N          61.4576   86.3405   11.8208 N.2     1  UNL1       -0.0345
      7 C          62.2379   85.2933   11.0829 C.2     1  UNL1        0.3649
      8 N          62.1898   85.6239    9.6205 N.2     1  UNL1       -0.0380
      9 C          61.3799   86.8754    9.4546 C.2     1  UNL1        0.2168
     10 C          60.9959   87.6690    8.2411 C.3     1  UNL1        0.0997
     11 C          62.9426   84.1212   11.6991 C.3     1  UNL1        0.2250
     12 C          62.8492   83.8823   13.1770 C.2     1  UNL1        0.0436
     13 C          63.5539   82.7102   13.7931 C.2     1  UNL1        0.0288
     14 C          64.3519   81.7770   12.9315 C.2     1  UNL1        0.0896
     15 N          64.4453   82.0160   11.4536 N.am    1  UNL1       -0.1770
     16 C          63.7406   83.1881   10.8374 C.2     1  UNL1        0.2627
     17 O          63.8339   83.4271    9.3595 O.2     1  UNL1       -0.2719
     18 N          62.0513   84.8153   14.0387 N.pl3   1  UNL1       -0.3335
     19 H          61.3629   85.3913   13.6343 H       1  UNL1        0.1466
     20 C          62.3021   84.8708   15.5165 C.3     1  UNL1        0.1136
     21 C          63.4917   85.6141   16.0480 C.3     1  UNL1        0.1486
     22 N          63.6056   87.0950   15.8386 N.ar    1  UNL1       -0.2468
     23 C          64.3739   87.7741   14.7438 C.ar    1  UNL1        0.1081
     24 C          64.2143   89.2557   14.9159 C.ar    1  UNL1        0.0972
     25 CL         64.8160   90.3148   14.0405 Cl      1  UNL1       -0.0789
     26 C          63.3474   89.4922   16.1168 C.ar    1  UNL1        0.1330
     27 N          62.9711   88.1568   16.6871 N.ar    1  UNL1       -0.1667
     28 N          59.0074   91.2861    4.7464 N.3     1  UNL1       -0.2706
     29 C          57.9486   90.6118    5.5676 C.3     1  UNL1        0.0725
     30 C          58.3326   89.8183    6.7812 C.3     1  UNL1        0.0214
     31 C          59.7754   89.6991    7.1736 C.3     1  UNL1        0.0215
     32 C          60.8342   90.3733    6.3526 C.3     1  UNL1        0.0214
     33 C          60.4502   91.1669    5.1389 C.3     1  UNL1        0.0725
     34 C          58.6234   92.0796    3.5328 C.3     1  UNL1        0.1046
     35 C          59.6826   92.7498    2.7089 C.3     1  UNL1        0.1595
     36 C          60.3595   95.0737    1.7648 C.3     1  UNL1        0.1742
     37 O          59.9987   94.1995    2.9291 O.3     1  UNL1       -0.3496
@<TRIPOS>BOND
     1    36    37    1
     2    37    35    1
     3    35    34    1
     4    34    28    1
     5    28    29    1
     6    29    30    1
     7    30    31    1
     8    31     1    1
     9     1     2    2
    10     2     3    1
    11     3     4    1
    12     3     5    2
    13     5     6    1
    14     6     7    2
    15     7    11    1
    16    11    12    1
    17    12    18    1
    18    18    20    1
    19    20    21    1
    20    21    22    1
    21    22    23   ar
    22    23    24   ar
    23    24    25    1
    24    24    26   ar
    25    26    27   ar
    26    12    13    2
    27    13    14    1
    28    14    15    2
    29    15    16    1
    30    16    17    2
    31     7     8    1
    32     8     9    2
    33     9    10    1
    34    31    32    1
    35    32    33    1
    36    33    28    1
    37    10     1    1
    38     9     5    1
    39    16    11    1
    40    27    22   ar
    41    18    19    1
@<TRIPOS>MOLECULE
*****
 37 41 0 0 0
SMALL
GASTEIGER

@<TRIPOS>ATOM
      1 C          59.9908   93.1018    2.5101 C.2     1  UNL1       -0.0363
      2 C          60.4085   94.5168    2.7807 C.2     1  UNL1       -0.0085
      3 C          60.7220   95.4378    1.6389 C.2     1  UNL1        0.0240
      4 C          61.1397   96.8528    1.9097 C.3     1  UNL1        0.0350
      5 C          60.6177   94.9436    0.2265 C.2     1  UNL1        0.2277
      6 N          60.8616   95.6153   -1.0923 N.2     1  UNL1       -0.0345
      7 C          60.5946   94.6154   -2.1781 C.2     1  UNL1        0.3649
      8 N          60.1857   93.3257   -1.5303 N.2     1  UNL1       -0.0380
      9 C          60.1999   93.5286   -0.0441 C.2     1  UNL1        0.2168
     10 C          59.8865   92.6077    1.0977 C.3     1  UNL1        0.0997
     11 C          60.7153   94.8618   -3.6528 C.3     1  UNL1        0.2250
     12 C          61.8573   95.6750   -4.1863 C.2     1  UNL1        0.0436
     13 C          61.9779   95.9213   -5.6610 C.2     1  UNL1        0.0288
     14 C          60.9567   95.3545   -6.6022 C.2     1  UNL1        0.0896
     15 N          59.8148   94.5413   -6.0687 N.am    1  UNL1       -0.1770
     16 C          59.6941   94.2950   -4.5940 C.2     1  UNL1        0.2627
     17 O          58.5521   93.4818   -4.0604 O.2     1  UNL1       -0.2719
     18 N          62.8785   96.2418   -3.2452 N.pl3   1  UNL1       -0.3335
     19 H          62.6963   97.0849   -2.7707 H       1  UNL1        0.1466
     20 C          64.1775   95.5241   -3.0270 C.3     1  UNL1        0.1136
     21 C          65.0179   95.8428   -1.8262 C.3     1  UNL1        0.1486
     22 N          64.7006   95.2158   -0.5009 N.ar    1  UNL1       -0.2468
     23 C          64.1536   93.8356   -0.2870 C.ar    1  UNL1        0.1081
     24 C          63.9896   93.6258    1.1893 C.ar    1  UNL1        0.0972
     25 CL         63.4710   92.3835    1.8510 Cl      1  UNL1       -0.0789
     26 C          64.4352   94.8762    1.8876 C.ar    1  UNL1        0.1330
     27 N          64.8746   95.8590    0.8430 N.ar    1  UNL1       -0.1667
     28 N          59.0503   90.3390    5.9353 N.3     1  UNL1       -0.2706
     29 C          57.9420   91.0607    5.2278 C.3     1  UNL1        0.0725
     30 C          58.2555   91.9816    4.0860 C.3     1  UNL1        0.0214
     31 C          59.6773   92.1808    3.6519 C.3     1  UNL1        0.0215
     32 C          60.7857   91.4592    4.3594 C.3     1  UNL1        0.0214
     33 C          60.4722   90.5382    5.5012 C.3     1  UNL1        0.0725
     34 C          58.7368   89.4180    7.0771 C.3     1  UNL1        0.1046
     35 C          59.8502   88.8081    7.8761 C.3     1  UNL1        0.1595
     36 C          59.9670   86.2127    7.8601 C.3     1  UNL1        0.1742
     37 O          59.6431   87.4941    8.5694 O.3     1  UNL1       -0.3496
@<TRIPOS>BOND
     1    36    37    1
     2    37    35    1
     3    35    34    1
     4    34    28    1
     5    28    29    1
     6    29    30    1
     7    30    31    1
     8    31     1    1
     9     1     2    2
    10     2     3    1
    11     3     4    1
    12     3     5    2
    13     5     6    1
    14     6     7    2
    15     7    11    1
    16    11    12    1
    17    12    18    1
    18    18    20    1
    19    20    21    1
    20    21    22    1
    21    22    23   ar
    22    23    24   ar
    23    24    25    1
    24    24    26   ar
    25    26    27   ar
    26    12    13    2
    27    13    14    1
    28    14    15    2
    29    15    16    1
    30    16    17    2
    31     7     8    1
    32     8     9    2
    33     9    10    1
    34    31    32    1
    35    32    33    1
    36    33    28    1
    37    10     1    1
    38     9     5    1
    39    16    11    1
    40    27    22   ar
    41    18    19    1
@<TRIPOS>MOLECULE
*****
 37 41 0 0 0
SMALL
GASTEIGER

@<TRIPOS>ATOM
      1 C          61.4586   87.6128   10.0722 C.2     1  UNL1       -0.0363
      2 C          60.2020   88.2075   10.6353 C.2     1  UNL1       -0.0085
      3 C          60.2775   89.1801   11.7748 C.2     1  UNL1        0.0240
      4 C          59.0207   89.7748   12.3379 C.3     1  UNL1        0.0350
      5 C          61.6098   89.5579   12.3512 C.2     1  UNL1        0.2277
      6 N          61.9945   90.4831   13.4674 N.2     1  UNL1       -0.0345
      7 C          63.4889   90.4602   13.5942 C.2     1  UNL1        0.3649
      8 N          64.0278   89.5209   12.5563 N.2     1  UNL1       -0.0380
      9 C          62.8665   88.9632   11.7881 C.2     1  UNL1        0.2168
     10 C          62.7909   87.9907   10.6486 C.3     1  UNL1        0.0997
     11 C          64.3018   91.2399   14.5849 C.3     1  UNL1        0.2250
     12 C          65.4407   92.0945   14.1134 C.2     1  UNL1        0.0436
     13 C          66.2535   92.8742   15.1042 C.2     1  UNL1        0.0288
     14 C          65.9274   92.7991   16.5663 C.2     1  UNL1        0.0896
     15 N          64.7885   91.9444   17.0378 N.am    1  UNL1       -0.1770
     16 C          63.9757   91.1648   16.0471 C.2     1  UNL1        0.2627
     17 O          62.8367   90.3101   16.5186 O.2     1  UNL1       -0.2719
     18 N          65.7668   92.1697   12.6512 N.pl3   1  UNL1       -0.3335
     19 H          65.0513   92.3328   11.9950 H       1  UNL1        0.1466
     20 C          67.1832   91.9962   12.1888 C.3     1  UNL1        0.1136
     21 C          67.5897   92.4679   10.8241 C.3     1  UNL1        0.1486
     22 N          67.3054   93.8791   10.4029 N.ar    1  UNL1       -0.2468
     23 C          67.5199   94.4504    9.0326 C.ar    1  UNL1        0.1081
     24 C          67.1038   95.8913    9.0608 C.ar    1  UNL1        0.0972
     25 CL         67.1511   96.8455    7.9044 Cl      1  UNL1       -0.0789
     26 C          66.6322   96.2106   10.4484 C.ar    1  UNL1        0.1330
     27 N          66.7568   94.9669   11.2779 N.ar    1  UNL1       -0.1667
     28 N          61.2318   84.6953    6.6536 N.3     1  UNL1       -0.2706
     29 C          60.0309   85.5158    7.0203 C.3     1  UNL1        0.0725
     30 C          60.1065   86.4883    8.1598 C.3     1  UNL1        0.0214
     31 C          61.3830   86.6403    8.9327 C.3     1  UNL1        0.0215
     32 C          62.5839   85.8198    8.5660 C.3     1  UNL1        0.0214
     33 C          62.5084   84.8472    7.4265 C.3     1  UNL1        0.0725
     34 C          61.1563   83.7228    5.5141 C.3     1  UNL1        0.1046
     35 C          61.8193   84.0451    4.2078 C.3     1  UNL1        0.1595
     36 C          61.5922   84.6833    1.6996 C.3     1  UNL1        0.1742
     37 O          61.0098   84.0845    2.9455 O.3     1  UNL1       -0.3496
@<TRIPOS>BOND
     1    36    37    1
     2    37    35    1
     3    35    34    1
     4    34    28    1
     5    28    29    1
     6    29    30    1
     7    30    31    1
     8    31     1    1
     9     1     2    2
    10     2     3    1
    11     3     4    1
    12     3     5    2
    13     5     6    1
    14     6     7    2
    15     7    11    1
    16    11    12    1
    17    12    18    1
    18    18    20    1
    19    20    21    1
    20    21    22    1
    21    22    23   ar
    22    23    24   ar
    23    24    25    1
    24    24    26   ar
    25    26    27   ar
    26    12    13    2
    27    13    14    1
    28    14    15    2
    29    15    16    1
    30    16    17    2
    31     7     8    1
    32     8     9    2
    33     9    10    1
    34    31    32    1
    35    32    33    1
    36    33    28    1
    37    10     1    1
    38     9     5    1
    39    16    11    1
    40    27    22   ar
    41    18    19    1
