@<TRIPOS>MOLECULE
*****
 37 42 0 0 0
SMALL
GASTEIGER

@<TRIPOS>ATOM
      1 N          62.5665   95.6092   -5.2126 N.ar    1  UNL1       -0.2878
      2 C          63.1407   96.1111   -6.5043 C.ar    1  UNL1        0.1828
      3 N          62.0833   95.9869   -7.5609 N.ar    1  UNL1       -0.2221
      4 C          60.8555   95.4083   -6.9222 C.ar    1  UNL1        0.1182
      5 C          59.5042   95.0639   -7.4747 C.ar    1  UNL1        0.1194
      6 N          58.4515   94.4860   -6.5759 N.ar    1  UNL1       -0.2421
      7 C          58.7501   94.2525   -5.1246 C.ar    1  UNL1        0.0851
      8 C          57.6975   93.6747   -4.2258 C.ar    1  UNL1        0.0488
      9 C          57.9961   93.4412   -2.7744 C.ar    1  UNL1        0.1416
     10 F          56.9434   92.8634   -1.8756 F       1  UNL1       -0.2041
     11 C          59.3474   93.7857   -2.2219 C.ar    1  UNL1        0.0284
     12 C          60.4001   94.3636   -3.1208 C.ar    1  UNL1        0.0053
     13 C          60.1015   94.5970   -4.5721 C.ar    1  UNL1        0.0355
     14 C          61.1542   95.1749   -5.4709 C.ar    1  UNL1        0.0860
     15 C          59.6460   93.5523   -0.7706 C.ar    1  UNL1        0.0129
     16 C          60.1033   92.2010   -0.3069 C.ar    1  UNL1        0.0040
     17 C          60.4020   91.9676    1.1444 C.ar    1  UNL1        0.0376
     18 C          60.2433   93.0854    2.1320 C.ar    1  UNL1        0.1480
     19 C          59.7860   94.4366    1.6683 C.ar    1  UNL1        0.0489
     20 C          59.4874   94.6701    0.2169 C.ar    1  UNL1        0.0608
     21 CL         59.0301   96.0212   -0.2468 Cl      1  UNL1       -0.0821
     22 O          60.5419   92.8520    3.5833 O.3     1  UNL1       -0.4361
     23 C          59.6629   91.9461    4.3937 C.ar    1  UNL1        0.2297
     24 C          60.2706   90.8414    5.2062 C.ar    1  UNL1        0.0581
     25 C          59.3915   89.9354    6.0166 C.ar    1  UNL1        0.0064
     26 C          57.9047   90.1343    6.0143 C.ar    1  UNL1        0.0209
     27 C          57.2970   91.2390    5.2016 C.ar    1  UNL1        0.1021
     28 N          58.1761   92.1449    4.3914 N.ar    1  UNL1       -0.2098
     29 C          64.7052   95.4368   -1.2571 C.ar    1  UNL1       -0.0070
     30 C          64.3357   94.1675   -1.9658 C.ar    1  UNL1       -0.0017
     31 C          63.6227   94.2250   -3.2843 C.ar    1  UNL1        0.0173
     32 C          63.2794   95.5518   -3.8941 C.ar    1  UNL1        0.0654
     33 C          63.6489   96.8211   -3.1854 C.ar    1  UNL1        0.0173
     34 C          64.3619   96.7635   -1.8668 C.ar    1  UNL1       -0.0017
     35 C          65.4181   95.3793    0.0614 C.3     1  UNL1        0.1316
     36 N          64.1081   94.0654    2.4188 N.1     1  UNL1       -0.1955
     37 C          64.7631   94.7223    1.2401 C.1     1  UNL1        0.0780
@<TRIPOS>BOND
     1    36    37    3
     2    37    35    1
     3    35    29    1
     4    29    30   ar
     5    30    31   ar
     6    31    32   ar
     7    32     1    1
     8     1     2   ar
     9     2     3   ar
    10     3     4   ar
    11     4     5   ar
    12     5     6   ar
    13     6     7   ar
    14     7     8   ar
    15     8     9   ar
    16     9    10    1
    17     9    11   ar
    18    11    15    1
    19    15    16   ar
    20    16    17   ar
    21    17    18   ar
    22    18    22    1
    23    22    23    1
    24    23    24   ar
    25    24    25   ar
    26    25    26   ar
    27    26    27   ar
    28    27    28   ar
    29    18    19   ar
    30    19    20   ar
    31    20    21    1
    32    11    12   ar
    33    12    13   ar
    34    13    14   ar
    35    32    33   ar
    36    33    34   ar
    37    34    29   ar
    38    14     1   ar
    39    14     4   ar
    40    13     7   ar
    41    20    15   ar
    42    28    23   ar
@<TRIPOS>MOLECULE
*****
 37 42 0 0 0
SMALL
GASTEIGER

@<TRIPOS>ATOM
      1 N          62.7107   83.4353   10.9407 N.ar    1  UNL1       -0.2878
      2 C          62.4595   82.3068    9.9850 C.ar    1  UNL1        0.1828
      3 N          62.6920   81.0187   10.7175 N.ar    1  UNL1       -0.2221
      4 C          63.0869   81.3510   12.1259 C.ar    1  UNL1        0.1182
      5 C          63.4374   80.4866   13.3006 C.ar    1  UNL1        0.1194
      6 N          63.7995   81.1157   14.6133 N.ar    1  UNL1       -0.2421
      7 C          63.8110   82.6093   14.7512 C.ar    1  UNL1        0.0851
      8 C          64.1731   83.2385   16.0639 C.ar    1  UNL1        0.0488
      9 C          64.1846   84.7321   16.2018 C.ar    1  UNL1        0.1416
     10 F          64.5467   85.3613   17.5144 F       1  UNL1       -0.2041
     11 C          63.8341   85.5965   15.0272 C.ar    1  UNL1        0.0284
     12 C          63.4720   84.9674   13.7145 C.ar    1  UNL1        0.0053
     13 C          63.4605   83.4738   13.5765 C.ar    1  UNL1        0.0355
     14 C          63.0984   82.8446   12.2639 C.ar    1  UNL1        0.0860
     15 C          63.8456   87.0901   15.1651 C.ar    1  UNL1        0.0129
     16 C          64.5191   87.9343   14.1240 C.ar    1  UNL1        0.0040
     17 C          64.5306   89.4279   14.2620 C.ar    1  UNL1        0.0376
     18 C          63.8687   90.0773   15.4411 C.ar    1  UNL1        0.1480
     19 C          63.1953   89.2331   16.4821 C.ar    1  UNL1        0.0489
     20 C          63.1838   87.7395   16.3442 C.ar    1  UNL1        0.0608
     21 CL         62.5104   86.8954   17.3852 Cl      1  UNL1       -0.0821
     22 O          63.8802   91.5709   15.5790 O.3     1  UNL1       -0.4361
     23 C          65.1467   92.3369   15.3350 C.ar    1  UNL1        0.2297
     24 C          66.1686   92.4635   16.4256 C.ar    1  UNL1        0.0581
     25 C          67.4351   93.2294   16.1816 C.ar    1  UNL1        0.0064
     26 C          67.6794   93.8688   14.8469 C.ar    1  UNL1        0.0209
     27 C          66.6574   93.7423   13.7562 C.ar    1  UNL1        0.1021
     28 N          65.3910   92.9763   14.0003 N.ar    1  UNL1       -0.2098
     29 C          62.3622   87.8228   10.0030 C.ar    1  UNL1       -0.0070
     30 C          62.7628   86.8557    8.9286 C.ar    1  UNL1       -0.0017
     31 C          62.8790   85.3932    9.2413 C.ar    1  UNL1        0.0173
     32 C          62.5945   84.8978   10.6282 C.ar    1  UNL1        0.0654
     33 C          62.1939   85.8648   11.7026 C.ar    1  UNL1        0.0173
     34 C          62.0778   87.3273   11.3900 C.ar    1  UNL1       -0.0017
     35 C          62.2460   89.2852    9.6905 C.3     1  UNL1        0.1316
     36 N          59.8976   90.8534   10.7033 N.1     1  UNL1       -0.1955
     37 C          61.0718   90.0693   10.1968 C.1     1  UNL1        0.0780
@<TRIPOS>BOND
     1    36    37    3
     2    37    35    1
     3    35    29    1
     4    29    30   ar
     5    30    31   ar
     6    31    32   ar
     7    32     1    1
     8     1     2   ar
     9     2     3   ar
    10     3     4   ar
    11     4     5   ar
    12     5     6   ar
    13     6     7   ar
    14     7     8   ar
    15     8     9   ar
    16     9    10    1
    17     9    11   ar
    18    11    15    1
    19    15    16   ar
    20    16    17   ar
    21    17    18   ar
    22    18    22    1
    23    22    23    1
    24    23    24   ar
    25    24    25   ar
    26    25    26   ar
    27    26    27   ar
    28    27    28   ar
    29    18    19   ar
    30    19    20   ar
    31    20    21    1
    32    11    12   ar
    33    12    13   ar
    34    13    14   ar
    35    32    33   ar
    36    33    34   ar
    37    34    29   ar
    38    14     1   ar
    39    14     4   ar
    40    13     7   ar
    41    20    15   ar
    42    28    23   ar
@<TRIPOS>MOLECULE
*****
 37 42 0 0 0
SMALL
GASTEIGER

@<TRIPOS>ATOM
      1 N          62.8408   82.0360   14.1605 N.ar    1  UNL1       -0.2878
      2 C          62.8007   80.6149   14.6388 C.ar    1  UNL1        0.1828
      3 N          62.7695   79.7213   13.4344 N.ar    1  UNL1       -0.2221
      4 C          62.7902   80.5901   12.2118 C.ar    1  UNL1        0.1182
      5 C          62.7747   80.2634   10.7480 C.ar    1  UNL1        0.1194
      6 N          62.8032   81.3673    9.7327 N.ar    1  UNL1       -0.2421
      7 C          62.8473   82.7979   10.1815 C.ar    1  UNL1        0.0851
      8 C          62.8759   83.9018    9.1663 C.ar    1  UNL1        0.0488
      9 C          62.9200   85.3324    9.6151 C.ar    1  UNL1        0.1416
     10 F          62.9485   86.4363    8.5999 F       1  UNL1       -0.2041
     11 C          62.9355   85.6592   11.0789 C.ar    1  UNL1        0.0284
     12 C          62.9070   84.5552   12.0942 C.ar    1  UNL1        0.0053
     13 C          62.8629   83.1246   11.6454 C.ar    1  UNL1        0.0355
     14 C          62.8343   82.0207   12.6606 C.ar    1  UNL1        0.0860
     15 C          62.9796   87.0898   11.5276 C.ar    1  UNL1        0.0129
     16 C          62.3940   88.1658   10.6619 C.ar    1  UNL1        0.0040
     17 C          62.4381   89.5964   11.1106 C.ar    1  UNL1        0.0376
     18 C          63.0678   89.9511   12.4251 C.ar    1  UNL1        0.1480
     19 C          63.6533   88.8751   13.2908 C.ar    1  UNL1        0.0489
     20 C          63.6092   87.4445   12.8421 C.ar    1  UNL1        0.0608
     21 CL         64.1948   86.3685   13.7077 Cl      1  UNL1       -0.0821
     22 O          63.1119   91.3817   12.8738 O.3     1  UNL1       -0.4361
     23 C          64.4070   91.9847   13.3311 C.ar    1  UNL1        0.2297
     24 C          65.3223   92.6375   12.3381 C.ar    1  UNL1        0.0581
     25 C          66.6175   93.2405   12.7954 C.ar    1  UNL1        0.0064
     26 C          66.9972   93.1907   14.2457 C.ar    1  UNL1        0.0209
     27 C          66.0819   92.5378   15.2387 C.ar    1  UNL1        0.1021
     28 N          64.7868   91.9349   14.7814 N.ar    1  UNL1       -0.2098
     29 C          62.9597   85.7020   16.7676 C.ar    1  UNL1       -0.0070
     30 C          64.2131   84.9156   16.5217 C.ar    1  UNL1       -0.0017
     31 C          64.1734   83.6936   15.6526 C.ar    1  UNL1        0.0173
     32 C          62.8804   83.2580   15.0295 C.ar    1  UNL1        0.0654
     33 C          61.6270   84.0444   15.2754 C.ar    1  UNL1        0.0173
     34 C          61.6667   85.2664   16.1445 C.ar    1  UNL1       -0.0017
     35 C          62.9993   86.9239   17.6367 C.3     1  UNL1        0.1316
     36 N          62.9082   89.6524   16.3930 N.1     1  UNL1       -0.1955
     37 C          62.9538   88.2882   17.0148 C.1     1  UNL1        0.0780
@<TRIPOS>BOND
     1    36    37    3
     2    37    35    1
     3    35    29    1
     4    29    30   ar
     5    30    31   ar
     6    31    32   ar
     7    32     1    1
     8     1     2   ar
     9     2     3   ar
    10     3     4   ar
    11     4     5   ar
    12     5     6   ar
    13     6     7   ar
    14     7     8   ar
    15     8     9   ar
    16     9    10    1
    17     9    11   ar
    18    11    15    1
    19    15    16   ar
    20    16    17   ar
    21    17    18   ar
    22    18    22    1
    23    22    23    1
    24    23    24   ar
    25    24    25   ar
    26    25    26   ar
    27    26    27   ar
    28    27    28   ar
    29    18    19   ar
    30    19    20   ar
    31    20    21    1
    32    11    12   ar
    33    12    13   ar
    34    13    14   ar
    35    32    33   ar
    36    33    34   ar
    37    34    29   ar
    38    14     1   ar
    39    14     4   ar
    40    13     7   ar
    41    20    15   ar
    42    28    23   ar
@<TRIPOS>MOLECULE
*****
 37 42 0 0 0
SMALL
GASTEIGER

@<TRIPOS>ATOM
      1 N          63.0710   82.5034   14.5464 N.ar    1  UNL1       -0.2878
      2 C          63.1066   81.1669   15.2265 C.ar    1  UNL1        0.1828
      3 N          63.0807   80.1064   14.1660 N.ar    1  UNL1       -0.2221
      4 C          63.0291   80.7874   12.8305 C.ar    1  UNL1        0.1182
      5 C          62.9868   80.2500   11.4308 C.ar    1  UNL1        0.1194
      6 N          62.9385   81.1941   10.2660 N.ar    1  UNL1       -0.2421
      7 C          62.9325   82.6755   10.5012 C.ar    1  UNL1        0.0851
      8 C          62.8842   83.6196    9.3365 C.ar    1  UNL1        0.0488
      9 C          62.8782   85.1010    9.5717 C.ar    1  UNL1        0.1416
     10 F          62.8299   86.0451    8.4071 F       1  UNL1       -0.2041
     11 C          62.9204   85.6384   10.9714 C.ar    1  UNL1        0.0284
     12 C          62.9687   84.6944   12.1362 C.ar    1  UNL1        0.0053
     13 C          62.9748   83.2129   11.9010 C.ar    1  UNL1        0.0355
     14 C          63.0231   82.2689   13.0656 C.ar    1  UNL1        0.0860
     15 C          62.9144   87.1199   11.2066 C.ar    1  UNL1        0.0129
     16 C          63.6196   87.6927   12.4002 C.ar    1  UNL1        0.0040
     17 C          63.6136   89.1741   12.6353 C.ar    1  UNL1        0.0376
     18 C          62.9023   90.0828   11.6768 C.ar    1  UNL1        0.1480
     19 C          62.1972   89.5099   10.4833 C.ar    1  UNL1        0.0489
     20 C          62.2032   88.0285   10.2482 C.ar    1  UNL1        0.0608
     21 CL         61.4981   87.4557    9.0546 Cl      1  UNL1       -0.0821
     22 O          62.8963   91.5642   11.9120 O.3     1  UNL1       -0.4361
     23 C          64.1821   92.3356   11.8692 C.ar    1  UNL1        0.2297
     24 C          65.0730   92.3760   13.0753 C.ar    1  UNL1        0.0581
     25 C          66.3588   93.1474   13.0325 C.ar    1  UNL1        0.0064
     26 C          66.7536   93.8784   11.7836 C.ar    1  UNL1        0.0209
     27 C          65.8626   93.8381   10.5775 C.ar    1  UNL1        0.1021
     28 N          64.5769   93.0667   10.6203 N.ar    1  UNL1       -0.2098
     29 C          63.1021   86.5126   16.5899 C.ar    1  UNL1       -0.0070
     30 C          61.9085   85.6136   16.7203 C.ar    1  UNL1       -0.0017
     31 C          61.8982   84.2772   16.0391 C.ar    1  UNL1        0.0173
     32 C          63.0814   83.8398   15.2276 C.ar    1  UNL1        0.0654
     33 C          64.2750   84.7387   15.0971 C.ar    1  UNL1        0.0173
     34 C          64.2854   86.0752   15.7783 C.ar    1  UNL1       -0.0017
     35 C          63.1126   87.8490   17.2710 C.3     1  UNL1        0.1316
     36 N          63.2168   90.3637   15.6385 N.1     1  UNL1       -0.1955
     37 C          63.1646   89.1063   16.4547 C.1     1  UNL1        0.0780
@<TRIPOS>BOND
     1    36    37    3
     2    37    35    1
     3    35    29    1
     4    29    30   ar
     5    30    31   ar
     6    31    32   ar
     7    32     1    1
     8     1     2   ar
     9     2     3   ar
    10     3     4   ar
    11     4     5   ar
    12     5     6   ar
    13     6     7   ar
    14     7     8   ar
    15     8     9   ar
    16     9    10    1
    17     9    11   ar
    18    11    15    1
    19    15    16   ar
    20    16    17   ar
    21    17    18   ar
    22    18    22    1
    23    22    23    1
    24    23    24   ar
    25    24    25   ar
    26    25    26   ar
    27    26    27   ar
    28    27    28   ar
    29    18    19   ar
    30    19    20   ar
    31    20    21    1
    32    11    12   ar
    33    12    13   ar
    34    13    14   ar
    35    32    33   ar
    36    33    34   ar
    37    34    29   ar
    38    14     1   ar
    39    14     4   ar
    40    13     7   ar
    41    20    15   ar
    42    28    23   ar
