@<TRIPOS>MOLECULE
*****
 30 32 0 0 0
SMALL
GASTEIGER

@<TRIPOS>ATOM
      1 N          62.4730   88.0253   10.9349 N.am    1  UNL1       -0.2972
      2 C          61.2568   88.7546   11.4238 C.2     1  UNL1        0.2430
      3 O          59.9769   88.0074   11.6554 O.2     1  UNL1       -0.2732
      4 H          63.3131   88.5157   10.7829 H       1  UNL1        0.1500
      5 C          62.4094   86.5489   10.6777 C.3     1  UNL1        0.1169
      6 C          62.5103   81.6891   12.5139 C.3     1  UNL1        0.0310
      7 C          62.7915   83.1515   12.6930 C.ar    1  UNL1       -0.0221
      8 C          63.4044   83.6465   13.9695 C.ar    1  UNL1       -0.0043
      9 C          63.6856   85.1090   14.1487 C.ar    1  UNL1       -0.0006
     10 C          63.3539   86.0765   13.0514 C.ar    1  UNL1       -0.0024
     11 C          62.7411   85.5815   11.7750 C.ar    1  UNL1       -0.0006
     12 C          62.4598   84.1190   11.5958 C.ar    1  UNL1       -0.0066
     13 C          62.0140   86.0400    9.3232 C.ar    1  UNL1       -0.0003
     14 C          63.0206   85.3334    8.4644 C.ar    1  UNL1       -0.0024
     15 C          62.6252   84.8244    7.1098 C.ar    1  UNL1       -0.0003
     16 C          61.2233   85.0221    6.6142 C.ar    1  UNL1       -0.0000
     17 C          60.2168   85.7287    7.4730 C.ar    1  UNL1       -0.0003
     18 C          60.6121   86.2376    8.8275 C.ar    1  UNL1       -0.0024
     19 C          61.3205   90.2310   11.6810 C.3     1  UNL1        0.1759
     20 N          62.6346   90.8810   11.9983 N.am    1  UNL1       -0.2931
     21 C          63.2618   90.6856   13.3468 C.2     1  UNL1        0.2462
     22 O          62.5748   89.8402   14.3780 O.2     1  UNL1       -0.2701
     23 H          63.0855   91.4359   11.3215 H       1  UNL1        0.1502
     24 C          64.5758   91.3356   13.6641 C.ar    1  UNL1        0.0535
     25 C          65.3378   92.0510   12.5883 C.ar    1  UNL1        0.0068
     26 C          66.6519   92.7011   12.9056 C.ar    1  UNL1        0.0298
     27 C          67.2040   92.6356   14.2988 C.ar    1  UNL1        0.1401
     28 F          68.5180   93.2856   14.6161 F       1  UNL1       -0.2042
     29 C          66.4419   91.9201   15.3746 C.ar    1  UNL1        0.0298
     30 C          65.1279   91.2701   15.0573 C.ar    1  UNL1        0.0068
@<TRIPOS>BOND
     1     6     7    1
     2     7     8   ar
     3     8     9   ar
     4     9    10   ar
     5    10    11   ar
     6    11     5    1
     7     5     1    1
     8     1     2   am
     9     2     3    2
    10     2    19    1
    11    19    20    1
    12    20    21   am
    13    21    22    2
    14    21    24    1
    15    24    25   ar
    16    25    26   ar
    17    26    27   ar
    18    27    28    1
    19    27    29   ar
    20    29    30   ar
    21     5    13    1
    22    13    14   ar
    23    14    15   ar
    24    15    16   ar
    25    16    17   ar
    26    17    18   ar
    27    11    12   ar
    28    12     7   ar
    29    30    24   ar
    30    18    13   ar
    31     1     4    1
    32    20    23    1
@<TRIPOS>MOLECULE
*****
 30 32 0 0 0
SMALL
GASTEIGER

@<TRIPOS>ATOM
      1 N          64.4521   88.4681   14.9133 N.am    1  UNL1       -0.2972
      2 C          63.3346   88.3150   15.9021 C.2     1  UNL1        0.2430
      3 O          62.3602   89.4360   16.1122 O.2     1  UNL1       -0.2732
      4 H          65.0916   87.7324   14.7754 H       1  UNL1        0.1500
      5 C          64.5952   89.7421   14.1345 C.3     1  UNL1        0.1169
      6 C          61.7014   87.7422   10.3101 C.3     1  UNL1        0.0310
      7 C          62.4443   88.9005   10.9073 C.ar    1  UNL1       -0.0221
      8 C          62.4831   90.2170   10.1895 C.ar    1  UNL1       -0.0043
      9 C          63.2259   91.3752   10.7867 C.ar    1  UNL1       -0.0006
     10 C          63.9300   91.2169   12.1017 C.ar    1  UNL1       -0.0024
     11 C          63.8911   89.9005   12.8195 C.ar    1  UNL1       -0.0006
     12 C          63.1483   88.7422   12.2223 C.ar    1  UNL1       -0.0066
     13 C          65.4423   90.8578   14.6708 C.ar    1  UNL1       -0.0003
     14 C          64.9504   91.6876   15.8195 C.ar    1  UNL1       -0.0024
     15 C          65.7976   92.8033   16.3557 C.ar    1  UNL1       -0.0003
     16 C          67.1366   93.0892   15.7433 C.ar    1  UNL1       -0.0000
     17 C          67.6286   92.2594   14.5947 C.ar    1  UNL1       -0.0003
     18 C          66.7815   91.1437   14.0584 C.ar    1  UNL1       -0.0024
     19 C          63.1915   87.0410   16.6808 C.3     1  UNL1        0.1759
     20 N          62.8464   85.7642   15.9731 N.am    1  UNL1       -0.2931
     21 C          63.8709   85.0810   15.1166 C.2     1  UNL1        0.2462
     22 O          65.2405   85.6746   14.9677 O.2     1  UNL1       -0.2701
     23 H          61.9476   85.3746   16.0708 H       1  UNL1        0.1502
     24 C          63.5259   83.8042   14.4089 C.ar    1  UNL1        0.0535
     25 C          62.3495   82.9907   14.8607 C.ar    1  UNL1        0.0068
     26 C          62.0044   81.7138   14.1530 C.ar    1  UNL1        0.0298
     27 C          62.8359   81.2506   12.9936 C.ar    1  UNL1        0.1401
     28 F          62.4909   79.9738   12.2860 F       1  UNL1       -0.2042
     29 C          64.0124   82.0642   12.5419 C.ar    1  UNL1        0.0298
     30 C          64.3574   83.3410   13.2496 C.ar    1  UNL1        0.0068
@<TRIPOS>BOND
     1     6     7    1
     2     7     8   ar
     3     8     9   ar
     4     9    10   ar
     5    10    11   ar
     6    11     5    1
     7     5     1    1
     8     1     2   am
     9     2     3    2
    10     2    19    1
    11    19    20    1
    12    20    21   am
    13    21    22    2
    14    21    24    1
    15    24    25   ar
    16    25    26   ar
    17    26    27   ar
    18    27    28    1
    19    27    29   ar
    20    29    30   ar
    21     5    13    1
    22    13    14   ar
    23    14    15   ar
    24    15    16   ar
    25    16    17   ar
    26    17    18   ar
    27    11    12   ar
    28    12     7   ar
    29    30    24   ar
    30    18    13   ar
    31     1     4    1
    32    20    23    1
@<TRIPOS>MOLECULE
*****
 30 32 0 0 0
SMALL
GASTEIGER

@<TRIPOS>ATOM
      1 N          64.0108   90.3878   12.8157 N.am    1  UNL1       -0.2972
      2 C          62.5300   90.2559   12.6162 C.2     1  UNL1        0.2430
      3 O          61.6468   89.8927   13.7730 O.2     1  UNL1       -0.2732
      4 H          64.5905   90.6261   12.0565 H       1  UNL1        0.1500
      5 C          64.6084   90.1567   14.1720 C.3     1  UNL1        0.1169
      6 C          64.4295   85.0133   14.8888 C.3     1  UNL1        0.0310
      7 C          64.0915   86.4013   15.3464 C.ar    1  UNL1       -0.0221
      8 C          63.3261   86.6054   16.6202 C.ar    1  UNL1       -0.0043
      9 C          62.9881   87.9933   17.0778 C.ar    1  UNL1       -0.0006
     10 C          63.4155   89.1771   16.2618 C.ar    1  UNL1       -0.0024
     11 C          64.1809   88.9729   14.9881 C.ar    1  UNL1       -0.0006
     12 C          64.5189   87.5850   14.5304 C.ar    1  UNL1       -0.0066
     13 C          65.6335   91.1093   14.7121 C.ar    1  UNL1       -0.0003
     14 C          65.2965   91.9924   15.8769 C.ar    1  UNL1       -0.0024
     15 C          66.3217   92.9450   16.4170 C.ar    1  UNL1       -0.0003
     16 C          67.6836   93.0146   15.7924 C.ar    1  UNL1       -0.0000
     17 C          68.0205   92.1315   14.6276 C.ar    1  UNL1       -0.0003
     18 C          66.9955   91.1789   14.0874 C.ar    1  UNL1       -0.0024
     19 C          61.9324   90.4870   11.2599 C.3     1  UNL1        0.1759
     20 N          62.0364   89.4267   10.2039 N.am    1  UNL1       -0.2931
     21 C          61.1976   88.1869   10.3008 C.2     1  UNL1        0.2462
     22 O          60.2547   88.0075   11.4536 O.2     1  UNL1       -0.2701
     23 H          62.6552   89.5445    9.4474 H       1  UNL1        0.1502
     24 C          61.3015   87.1267    9.2449 C.ar    1  UNL1        0.0535
     25 C          60.1231   86.8238    8.3677 C.ar    1  UNL1        0.0068
     26 C          60.2270   85.7634    7.3117 C.ar    1  UNL1        0.0298
     27 C          61.5094   85.0061    7.1330 C.ar    1  UNL1        0.1401
     28 F          61.6134   83.9458    6.0771 F       1  UNL1       -0.2042
     29 C          62.6879   85.3091    8.0103 C.ar    1  UNL1        0.0298
     30 C          62.5839   86.3693    9.0662 C.ar    1  UNL1        0.0068
@<TRIPOS>BOND
     1     6     7    1
     2     7     8   ar
     3     8     9   ar
     4     9    10   ar
     5    10    11   ar
     6    11     5    1
     7     5     1    1
     8     1     2   am
     9     2     3    2
    10     2    19    1
    11    19    20    1
    12    20    21   am
    13    21    22    2
    14    21    24    1
    15    24    25   ar
    16    25    26   ar
    17    26    27   ar
    18    27    28    1
    19    27    29   ar
    20    29    30   ar
    21     5    13    1
    22    13    14   ar
    23    14    15   ar
    24    15    16   ar
    25    16    17   ar
    26    17    18   ar
    27    11    12   ar
    28    12     7   ar
    29    30    24   ar
    30    18    13   ar
    31     1     4    1
    32    20    23    1
@<TRIPOS>MOLECULE
*****
 30 32 0 0 0
SMALL
GASTEIGER

@<TRIPOS>ATOM
      1 N          63.9425   88.5255   14.0294 N.am    1  UNL1       -0.2972
      2 C          63.3473   88.4343   15.4032 C.2     1  UNL1        0.2430
      3 O          62.5305   89.5704   15.9437 O.2     1  UNL1       -0.2732
      4 H          64.4786   87.7798   13.6747 H       1  UNL1        0.1500
      5 C          63.7208   89.7528   13.1960 C.3     1  UNL1        0.1169
      6 C          66.9436   92.5930   16.1195 C.3     1  UNL1        0.0310
      7 C          66.2326   92.3617   14.8191 C.ar    1  UNL1       -0.0221
      8 C          66.4220   93.3192   13.6801 C.ar    1  UNL1       -0.0043
      9 C          65.7110   93.0879   12.3798 C.ar    1  UNL1       -0.0006
     10 C          64.8106   91.8991   12.2184 C.ar    1  UNL1       -0.0024
     11 C          64.6212   90.9416   13.3573 C.ar    1  UNL1       -0.0006
     12 C          65.3322   91.1730   14.6577 C.ar    1  UNL1       -0.0066
     13 C          62.5988   89.7913   12.2012 C.ar    1  UNL1       -0.0003
     14 C          62.8907   89.6588   10.7359 C.ar    1  UNL1       -0.0024
     15 C          61.7686   89.6973    9.7411 C.ar    1  UNL1       -0.0003
     16 C          60.3547   89.8683   10.2117 C.ar    1  UNL1       -0.0000
     17 C          60.0628   90.0008   11.6771 C.ar    1  UNL1       -0.0003
     18 C          61.1848   89.9623   12.6718 C.ar    1  UNL1       -0.0024
     19 C          63.5690   87.2070   16.2367 C.3     1  UNL1        0.1759
     20 N          63.1307   85.8657   15.7279 N.am    1  UNL1       -0.2931
     21 C          64.0340   85.0718   14.8314 C.2     1  UNL1        0.2462
     22 O          65.3757   85.6192   14.4436 O.2     1  UNL1       -0.2701
     23 H          62.2501   85.5064   15.9824 H       1  UNL1        0.1502
     24 C          63.5957   83.7305   14.3226 C.ar    1  UNL1        0.0535
     25 C          62.3669   83.0799   14.8852 C.ar    1  UNL1        0.0068
     26 C          61.9286   81.7386   14.3765 C.ar    1  UNL1        0.0298
     27 C          62.7191   81.0480   13.3050 C.ar    1  UNL1        0.1401
     28 F          62.2808   79.7067   12.7962 F       1  UNL1       -0.2042
     29 C          63.9480   81.6986   12.7424 C.ar    1  UNL1        0.0298
     30 C          64.3863   83.0399   13.2511 C.ar    1  UNL1        0.0068
@<TRIPOS>BOND
     1     6     7    1
     2     7     8   ar
     3     8     9   ar
     4     9    10   ar
     5    10    11   ar
     6    11     5    1
     7     5     1    1
     8     1     2   am
     9     2     3    2
    10     2    19    1
    11    19    20    1
    12    20    21   am
    13    21    22    2
    14    21    24    1
    15    24    25   ar
    16    25    26   ar
    17    26    27   ar
    18    27    28    1
    19    27    29   ar
    20    29    30   ar
    21     5    13    1
    22    13    14   ar
    23    14    15   ar
    24    15    16   ar
    25    16    17   ar
    26    17    18   ar
    27    11    12   ar
    28    12     7   ar
    29    30    24   ar
    30    18    13   ar
    31     1     4    1
    32    20    23    1
@<TRIPOS>MOLECULE
*****
 30 32 0 0 0
SMALL
GASTEIGER

@<TRIPOS>ATOM
      1 N          63.3192   90.4133   12.2073 N.am    1  UNL1       -0.2972
      2 C          61.8478   90.1330   12.2862 C.2     1  UNL1        0.2430
      3 O          61.2154   89.8109   13.6077 O.2     1  UNL1       -0.2732
      4 H          63.7342   90.6247   11.3400 H       1  UNL1        0.1500
      5 C          64.1583   90.3716   13.4500 C.3     1  UNL1        0.1169
      6 C          68.1349   92.2121   16.2427 C.3     1  UNL1        0.0310
      7 C          67.2041   92.3314   15.0725 C.ar    1  UNL1       -0.0221
      8 C          67.3307   93.4901   14.1284 C.ar    1  UNL1       -0.0043
      9 C          66.3999   93.6094   12.9582 C.ar    1  UNL1       -0.0006
     10 C          65.3424   92.5699   12.7321 C.ar    1  UNL1       -0.0024
     11 C          65.2158   91.4112   13.6761 C.ar    1  UNL1       -0.0006
     12 C          66.1466   91.2919   14.8463 C.ar    1  UNL1       -0.0066
     13 C          63.9399   89.2904   14.4665 C.ar    1  UNL1       -0.0003
     14 C          63.3329   89.6235   15.7971 C.ar    1  UNL1       -0.0024
     15 C          63.1145   88.5422   16.8136 C.ar    1  UNL1       -0.0003
     16 C          63.5032   87.1279   16.4995 C.ar    1  UNL1       -0.0000
     17 C          64.1103   86.7948   15.1688 C.ar    1  UNL1       -0.0003
     18 C          64.3286   87.8760   14.1524 C.ar    1  UNL1       -0.0024
     19 C          61.0087   90.1747   11.0435 C.3     1  UNL1        0.1759
     20 N          61.2632   89.1983    9.9336 N.am    1  UNL1       -0.2931
     21 C          61.0493   87.7312   10.1615 C.2     1  UNL1        0.2462
     22 O          60.5808   87.2405   11.4993 O.2     1  UNL1       -0.2701
     23 H          61.5707   89.5204    9.0555 H       1  UNL1        0.1502
     24 C          61.3038   86.7549    9.0516 C.ar    1  UNL1        0.0535
     25 C          60.2174   86.4389    8.0669 C.ar    1  UNL1        0.0068
     26 C          60.4718   85.4625    6.9569 C.ar    1  UNL1        0.0298
     27 C          61.8128   84.8021    6.8317 C.ar    1  UNL1        0.1401
     28 F          62.0673   83.8257    5.7219 F       1  UNL1       -0.2042
     29 C          62.8993   85.1181    7.8165 C.ar    1  UNL1        0.0298
     30 C          62.6448   86.0945    8.9264 C.ar    1  UNL1        0.0068
@<TRIPOS>BOND
     1     6     7    1
     2     7     8   ar
     3     8     9   ar
     4     9    10   ar
     5    10    11   ar
     6    11     5    1
     7     5     1    1
     8     1     2   am
     9     2     3    2
    10     2    19    1
    11    19    20    1
    12    20    21   am
    13    21    22    2
    14    21    24    1
    15    24    25   ar
    16    25    26   ar
    17    26    27   ar
    18    27    28    1
    19    27    29   ar
    20    29    30   ar
    21     5    13    1
    22    13    14   ar
    23    14    15   ar
    24    15    16   ar
    25    16    17   ar
    26    17    18   ar
    27    11    12   ar
    28    12     7   ar
    29    30    24   ar
    30    18    13   ar
    31     1     4    1
    32    20    23    1
@<TRIPOS>MOLECULE
*****
 30 32 0 0 0
SMALL
GASTEIGER

@<TRIPOS>ATOM
      1 N          64.5343   91.9047   12.3001 N.am    1  UNL1       -0.2972
      2 C          64.1522   90.6757   13.0705 C.2     1  UNL1        0.2430
      3 O          65.1498   90.0190   13.9781 O.2     1  UNL1       -0.2732
      4 H          63.8796   92.3356   11.7045 H       1  UNL1        0.1500
      5 C          65.9140   92.4771   12.4373 C.3     1  UNL1        0.1169
      6 C          66.9586   96.6385    9.5062 C.3     1  UNL1        0.0310
      7 C          67.1147   95.1727    9.7836 C.ar    1  UNL1       -0.0221
      8 C          67.9492   94.3218    8.8729 C.ar    1  UNL1       -0.0043
      9 C          68.1053   92.8559    9.1503 C.ar    1  UNL1       -0.0006
     10 C          67.4269   92.2410   10.3384 C.ar    1  UNL1       -0.0024
     11 C          66.5924   93.0920   11.2491 C.ar    1  UNL1       -0.0006
     12 C          66.4363   94.5578   10.9717 C.ar    1  UNL1       -0.0066
     13 C          66.6152   92.4347   13.7626 C.ar    1  UNL1       -0.0003
     14 C          65.8975   92.8714   15.0052 C.ar    1  UNL1       -0.0024
     15 C          66.5988   92.8289   16.3305 C.ar    1  UNL1       -0.0003
     16 C          68.0178   92.3498   16.4132 C.ar    1  UNL1       -0.0000
     17 C          68.7355   91.9130   15.1705 C.ar    1  UNL1       -0.0003
     18 C          68.0343   91.9555   13.8453 C.ar    1  UNL1       -0.0024
     19 C          62.7725   90.1033   12.9333 C.3     1  UNL1        0.1759
     20 N          62.5072   89.0169   11.9335 N.am    1  UNL1       -0.2931
     21 C          61.5438   89.2523   10.8082 C.2     1  UNL1        0.2462
     22 O          60.8456   90.5741   10.6827 O.2     1  UNL1       -0.2701
     23 H          62.9655   88.1495   12.0159 H       1  UNL1        0.1502
     24 C          61.2785   88.1661    9.8084 C.ar    1  UNL1        0.0535
     25 C          60.0392   88.2098    8.9646 C.ar    1  UNL1        0.0068
     26 C          59.7738   87.1235    7.9647 C.ar    1  UNL1        0.0298
     27 C          60.7478   85.9935    7.8088 C.ar    1  UNL1        0.1401
     28 F          60.4825   84.9073    6.8090 F       1  UNL1       -0.2042
     29 C          61.9872   85.9498    8.6527 C.ar    1  UNL1        0.0298
     30 C          62.2525   87.0360    9.6524 C.ar    1  UNL1        0.0068
@<TRIPOS>BOND
     1     6     7    1
     2     7     8   ar
     3     8     9   ar
     4     9    10   ar
     5    10    11   ar
     6    11     5    1
     7     5     1    1
     8     1     2   am
     9     2     3    2
    10     2    19    1
    11    19    20    1
    12    20    21   am
    13    21    22    2
    14    21    24    1
    15    24    25   ar
    16    25    26   ar
    17    26    27   ar
    18    27    28    1
    19    27    29   ar
    20    29    30   ar
    21     5    13    1
    22    13    14   ar
    23    14    15   ar
    24    15    16   ar
    25    16    17   ar
    26    17    18   ar
    27    11    12   ar
    28    12     7   ar
    29    30    24   ar
    30    18    13   ar
    31     1     4    1
    32    20    23    1
@<TRIPOS>MOLECULE
*****
 30 32 0 0 0
SMALL
GASTEIGER

@<TRIPOS>ATOM
      1 N          63.7579   89.8096   12.7162 N.am    1  UNL1       -0.2972
      2 C          62.2818   89.9886   12.5187 C.2     1  UNL1        0.2430
      3 O          61.3536   89.9165   13.6949 O.2     1  UNL1       -0.2732
      4 H          64.3671   89.8569   11.9443 H       1  UNL1        0.1500
      5 C          64.3059   89.5586   14.0898 C.3     1  UNL1        0.1169
      6 C          62.6555   86.7955   18.1692 C.3     1  UNL1        0.0310
      7 C          63.2562   86.8520   16.7959 C.ar    1  UNL1       -0.0221
      8 C          63.6324   85.5837   16.0891 C.ar    1  UNL1       -0.0043
      9 C          64.2331   85.6403   14.7158 C.ar    1  UNL1       -0.0006
     10 C          64.4576   86.9652   14.0493 C.ar    1  UNL1       -0.0024
     11 C          64.0814   88.2336   14.7562 C.ar    1  UNL1       -0.0006
     12 C          63.4807   88.1770   16.1295 C.ar    1  UNL1       -0.0066
     13 C          65.0782   90.6325   14.7970 C.ar    1  UNL1       -0.0003
     14 C          66.4938   90.9255   14.3968 C.ar    1  UNL1       -0.0024
     15 C          67.2662   91.9995   15.1040 C.ar    1  UNL1       -0.0003
     16 C          66.6229   92.7803   16.2115 C.ar    1  UNL1       -0.0000
     17 C          65.2073   92.4873   16.6117 C.ar    1  UNL1       -0.0003
     18 C          64.4350   91.4134   15.9045 C.ar    1  UNL1       -0.0024
     19 C          61.7339   90.2396   11.1452 C.3     1  UNL1        0.1759
     20 N          61.8981   89.2049   10.0715 N.am    1  UNL1       -0.2931
     21 C          61.1445   87.9107   10.1556 C.2     1  UNL1        0.2462
     22 O          60.2267   87.6512   11.3133 O.2     1  UNL1       -0.2701
     23 H          62.5005   89.3753    9.3117 H       1  UNL1        0.1502
     24 C          61.3087   86.8761    9.0821 C.ar    1  UNL1        0.0535
     25 C          62.6305   86.1920    8.8957 C.ar    1  UNL1        0.0068
     26 C          62.7948   85.1573    7.8221 C.ar    1  UNL1        0.0298
     27 C          61.6372   84.8068    6.9349 C.ar    1  UNL1        0.1401
     28 F          61.8014   83.7722    5.8614 F       1  UNL1       -0.2042
     29 C          60.3153   85.4909    7.1214 C.ar    1  UNL1        0.0298
     30 C          60.1511   86.5255    8.1949 C.ar    1  UNL1        0.0068
@<TRIPOS>BOND
     1     6     7    1
     2     7     8   ar
     3     8     9   ar
     4     9    10   ar
     5    10    11   ar
     6    11     5    1
     7     5     1    1
     8     1     2   am
     9     2     3    2
    10     2    19    1
    11    19    20    1
    12    20    21   am
    13    21    22    2
    14    21    24    1
    15    24    25   ar
    16    25    26   ar
    17    26    27   ar
    18    27    28    1
    19    27    29   ar
    20    29    30   ar
    21     5    13    1
    22    13    14   ar
    23    14    15   ar
    24    15    16   ar
    25    16    17   ar
    26    17    18   ar
    27    11    12   ar
    28    12     7   ar
    29    30    24   ar
    30    18    13   ar
    31     1     4    1
    32    20    23    1
@<TRIPOS>MOLECULE
*****
 30 32 0 0 0
SMALL
GASTEIGER

@<TRIPOS>ATOM
      1 N          63.8723   88.3892   13.8911 N.am    1  UNL1       -0.2972
      2 C          63.3482   88.3521   15.2960 C.2     1  UNL1        0.2430
      3 O          62.6036   89.5305   15.8502 O.2     1  UNL1       -0.2732
      4 H          64.3610   87.6157   13.5275 H       1  UNL1        0.1500
      5 C          63.6520   89.6047   13.0403 C.3     1  UNL1        0.1169
      6 C          65.7110   93.9330   11.0338 C.3     1  UNL1        0.0310
      7 C          65.6027   92.9464   12.1584 C.ar    1  UNL1       -0.0221
      8 C          66.4157   93.1373   13.4044 C.ar    1  UNL1       -0.0043
      9 C          66.3075   92.1506   14.5290 C.ar    1  UNL1       -0.0006
     10 C          65.3862   90.9731   14.4077 C.ar    1  UNL1       -0.0024
     11 C          64.5732   90.7822   13.1617 C.ar    1  UNL1       -0.0006
     12 C          64.6815   91.7689   12.0370 C.ar    1  UNL1       -0.0066
     13 C          62.5104   89.6427   12.0680 C.ar    1  UNL1       -0.0003
     14 C          61.1560   90.1034   12.5191 C.ar    1  UNL1       -0.0024
     15 C          60.0144   90.1414   11.5468 C.ar    1  UNL1       -0.0003
     16 C          60.2272   89.7187   10.1234 C.ar    1  UNL1       -0.0000
     17 C          61.5815   89.2580    9.6723 C.ar    1  UNL1       -0.0003
     18 C          62.7231   89.2200   10.6446 C.ar    1  UNL1       -0.0024
     19 C          63.5685   87.1366   16.1469 C.3     1  UNL1        0.1759
     20 N          63.1190   85.7901   15.6620 N.am    1  UNL1       -0.2931
     21 C          64.0114   84.9773   14.7715 C.2     1  UNL1        0.2462
     22 O          65.3533   85.5109   14.3659 O.2     1  UNL1       -0.2701
     23 H          62.2382   85.4399   15.9283 H       1  UNL1        0.1502
     24 C          63.5619   83.6309   14.2867 C.ar    1  UNL1        0.0535
     25 C          64.3560   82.9072   13.2400 C.ar    1  UNL1        0.0068
     26 C          63.9065   81.5608   12.7550 C.ar    1  UNL1        0.0298
     27 C          62.6629   80.9381   13.3169 C.ar    1  UNL1        0.1401
     28 F          62.2134   79.5917   12.8320 F       1  UNL1       -0.2042
     29 C          61.8688   81.6618   14.3636 C.ar    1  UNL1        0.0298
     30 C          62.3183   83.0082   14.8485 C.ar    1  UNL1        0.0068
@<TRIPOS>BOND
     1     6     7    1
     2     7     8   ar
     3     8     9   ar
     4     9    10   ar
     5    10    11   ar
     6    11     5    1
     7     5     1    1
     8     1     2   am
     9     2     3    2
    10     2    19    1
    11    19    20    1
    12    20    21   am
    13    21    22    2
    14    21    24    1
    15    24    25   ar
    16    25    26   ar
    17    26    27   ar
    18    27    28    1
    19    27    29   ar
    20    29    30   ar
    21     5    13    1
    22    13    14   ar
    23    14    15   ar
    24    15    16   ar
    25    16    17   ar
    26    17    18   ar
    27    11    12   ar
    28    12     7   ar
    29    30    24   ar
    30    18    13   ar
    31     1     4    1
    32    20    23    1
@<TRIPOS>MOLECULE
*****
 30 32 0 0 0
SMALL
GASTEIGER

@<TRIPOS>ATOM
      1 N          63.9056   88.2922   13.9681 N.am    1  UNL1       -0.2972
      2 C          63.3444   88.2711   15.3589 C.2     1  UNL1        0.2430
      3 O          62.5819   89.4539   15.8781 O.2     1  UNL1       -0.2732
      4 H          64.4061   87.5158   13.6274 H       1  UNL1        0.1500
      5 C          63.7043   89.4961   13.0963 C.3     1  UNL1        0.1169
      6 C          58.9283   90.9223   11.6279 C.3     1  UNL1        0.0310
      7 C          60.2208   90.2185   11.3375 C.ar    1  UNL1       -0.0221
      8 C          60.4177   89.5241   10.0226 C.ar    1  UNL1       -0.0043
      9 C          61.7102   88.8204    9.7322 C.ar    1  UNL1       -0.0006
     10 C          62.8057   88.8110   10.7568 C.ar    1  UNL1       -0.0024
     11 C          62.6088   89.5054   12.0717 C.ar    1  UNL1       -0.0006
     12 C          61.3163   90.2092   12.3620 C.ar    1  UNL1       -0.0066
     13 C          64.5985   90.6907   13.2490 C.ar    1  UNL1       -0.0003
     14 C          64.6543   91.7290   12.1679 C.ar    1  UNL1       -0.0024
     15 C          65.5485   92.9236   12.3207 C.ar    1  UNL1       -0.0003
     16 C          66.3870   93.0799   13.5546 C.ar    1  UNL1       -0.0000
     17 C          66.3312   92.0415   14.6357 C.ar    1  UNL1       -0.0003
     18 C          65.4370   90.8470   14.4830 C.ar    1  UNL1       -0.0024
     19 C          63.5457   87.0671   16.2307 C.3     1  UNL1        0.1759
     20 N          63.1041   85.7147   15.7554 N.am    1  UNL1       -0.2931
     21 C          63.9831   84.9188   14.8367 C.2     1  UNL1        0.2462
     22 O          65.3037   85.4753   14.3934 O.2     1  UNL1       -0.2701
     23 H          62.2374   85.3494   16.0463 H       1  UNL1        0.1502
     24 C          63.5416   83.5663   14.3614 C.ar    1  UNL1        0.0535
     25 C          62.2505   82.9829   14.8540 C.ar    1  UNL1        0.0068
     26 C          61.8090   81.6304   14.3786 C.ar    1  UNL1        0.0298
     27 C          62.6585   80.8614   13.4107 C.ar    1  UNL1        0.1401
     28 F          62.2170   79.5090   12.9353 F       1  UNL1       -0.2042
     29 C          63.9497   81.4450   12.9181 C.ar    1  UNL1        0.0298
     30 C          64.3912   82.7974   13.3934 C.ar    1  UNL1        0.0068
@<TRIPOS>BOND
     1     6     7    1
     2     7     8   ar
     3     8     9   ar
     4     9    10   ar
     5    10    11   ar
     6    11     5    1
     7     5     1    1
     8     1     2   am
     9     2     3    2
    10     2    19    1
    11    19    20    1
    12    20    21   am
    13    21    22    2
    14    21    24    1
    15    24    25   ar
    16    25    26   ar
    17    26    27   ar
    18    27    28    1
    19    27    29   ar
    20    29    30   ar
    21     5    13    1
    22    13    14   ar
    23    14    15   ar
    24    15    16   ar
    25    16    17   ar
    26    17    18   ar
    27    11    12   ar
    28    12     7   ar
    29    30    24   ar
    30    18    13   ar
    31     1     4    1
    32    20    23    1
