@<TRIPOS>MOLECULE
*****
 39 42 0 0 0
SMALL
GASTEIGER

@<TRIPOS>ATOM
      1 C          64.1472   89.4402   13.2823 C.ar    1  UNL1        0.0053
      2 C          64.3097   89.3520   14.7708 C.ar    1  UNL1        0.0033
      3 C          64.0833   88.0466   15.4739 C.ar    1  UNL1        0.0382
      4 C          63.6945   86.8292   14.6885 C.ar    1  UNL1        0.1529
      5 C          63.5320   86.9173   13.2000 C.ar    1  UNL1        0.0881
      6 C          63.7584   88.2228   12.4969 C.ar    1  UNL1        0.0181
      7 N          63.1432   85.7000   12.4146 N.am    1  UNL1       -0.2528
      8 C          62.9169   84.3945   13.1177 C.2     1  UNL1        0.2697
      9 O          62.5280   83.1771   12.3323 O.2     1  UNL1       -0.2704
     10 C          63.0793   84.3063   14.6064 C.3     1  UNL1        0.2198
     11 C          63.1106   83.7253   15.9889 C.3     1  UNL1        0.0579
     12 O          63.4682   85.5237   15.3918 O.3     1  UNL1       -0.4686
     13 C          65.3071   91.7621   13.1668 C.ar    1  UNL1        0.0645
     14 N          65.5334   93.0676   12.4636 N.ar    1  UNL1       -0.2183
     15 C          64.8262   93.3567   11.1727 C.ar    1  UNL1        0.2145
     16 N          65.0526   94.6622   10.4696 N.pl3   1  UNL1       -0.3274
     17 N          63.8927   92.3403   10.5850 N.ar    1  UNL1       -0.1995
     18 C          63.6664   91.0348   11.2882 C.ar    1  UNL1        0.1293
     19 N          62.7328   90.0183   10.7005 N.pl3   1  UNL1       -0.3425
     20 C          64.3735   90.7457   12.5791 C.ar    1  UNL1        0.0449
     21 H          65.6653   95.3293   10.8553 H       1  UNL1        0.1452
     22 H          64.5885   94.8519    9.6223 H       1  UNL1        0.1452
     23 H          62.2687   90.2080    9.8533 H       1  UNL1        0.1437
     24 H          62.5843   89.1615   11.1620 H       1  UNL1        0.1437
     25 C          67.4600   91.8389   14.6191 C.3     1  UNL1        0.0067
     26 C          66.0142   91.4730   14.4577 C.3     1  UNL1        0.0460
     27 C          62.7014   82.8872   14.3011 C.ar    1  UNL1        0.0243
     28 C          63.7467   81.9152   13.8402 C.ar    1  UNL1        0.0020
     29 C          63.3687   80.4960   13.5349 C.ar    1  UNL1        0.0318
     30 C          61.9454   80.0489   13.6906 C.ar    1  UNL1        0.1674
     31 F          61.5674   78.6298   13.3853 F       1  UNL1       -0.2018
     32 C          60.9001   81.0209   14.1515 C.ar    1  UNL1        0.1672
     33 F          59.4768   80.5738   14.3071 F       1  UNL1       -0.2018
     34 C          61.2780   82.4401   14.4568 C.ar    1  UNL1        0.0315
     35 C          62.9807   85.7881   10.9261 C.3     1  UNL1        0.1010
     36 C          61.6085   85.7891   10.3201 C.3     1  UNL1        0.0539
     37 C          60.7837   87.0419   10.3333 C.3     1  UNL1        0.1440
     38 O          60.4947   87.7359   11.6314 O.3     1  UNL1       -0.3510
     39 C          59.5485   88.8993   11.6654 C.3     1  UNL1        0.1741
@<TRIPOS>BOND
     1    25    26    1
     2    26    13    1
     3    13    14   ar
     4    14    15   ar
     5    15    16    1
     6    15    17   ar
     7    17    18   ar
     8    18    19    1
     9    18    20   ar
    10    20     1    1
    11     1     2   ar
    12     2     3   ar
    13     3     4   ar
    14     4     5   ar
    15     5     6   ar
    16     5     7    1
    17     7    35    1
    18    35    36    1
    19    36    37    1
    20    37    38    1
    21    38    39    1
    22     7     8   am
    23     8     9    2
    24     8    10    1
    25    10    11    1
    26    10    27    1
    27    27    28   ar
    28    28    29   ar
    29    29    30   ar
    30    30    31    1
    31    30    32   ar
    32    32    33    1
    33    32    34   ar
    34    10    12    1
    35    20    13   ar
    36     6     1   ar
    37    34    27   ar
    38    12     4    1
    39    16    21    1
    40    16    22    1
    41    19    23    1
    42    19    24    1
@<TRIPOS>MOLECULE
*****
 39 42 0 0 0
SMALL
GASTEIGER

@<TRIPOS>ATOM
      1 C          64.1102   89.4300   13.2544 C.ar    1  UNL1        0.0053
      2 C          64.2658   89.3472   14.7440 C.ar    1  UNL1        0.0033
      3 C          64.0409   88.0432   15.4502 C.ar    1  UNL1        0.0382
      4 C          63.6604   86.8219   14.6668 C.ar    1  UNL1        0.1529
      5 C          63.5049   86.9047   13.1773 C.ar    1  UNL1        0.0881
      6 C          63.7298   88.2087   12.4711 C.ar    1  UNL1        0.0181
      7 N          63.1244   85.6834   12.3939 N.am    1  UNL1       -0.2528
      8 C          62.8995   84.3793   13.1001 C.2     1  UNL1        0.2697
      9 O          62.5191   83.1580   12.3167 O.2     1  UNL1       -0.2704
     10 C          63.0551   84.2964   14.5897 C.3     1  UNL1        0.2198
     11 C          63.0817   83.7200   15.9743 C.3     1  UNL1        0.0579
     12 O          63.4356   85.5177   15.3731 O.3     1  UNL1       -0.4686
     13 C          63.6376   91.0141   11.2501 C.ar    1  UNL1        0.0645
     14 N          63.8624   92.3181   10.5438 N.ar    1  UNL1       -0.2183
     15 C          64.7849   93.3423   11.1356 C.ar    1  UNL1        0.2145
     16 N          65.0097   94.6464   10.4293 N.pl3   1  UNL1       -0.3274
     17 N          65.4824   93.0624   12.4337 N.ar    1  UNL1       -0.1995
     18 C          65.2575   91.7583   13.1400 C.ar    1  UNL1        0.1293
     19 N          65.9550   91.4784   14.4381 N.pl3   1  UNL1       -0.3425
     20 C          64.3351   90.7342   12.5482 C.ar    1  UNL1        0.0449
     21 H          64.5519   94.8301    9.5773 H       1  UNL1        0.1452
     22 H          65.6151   95.3186   10.8178 H       1  UNL1        0.1452
     23 H          66.5604   92.1506   14.8266 H       1  UNL1        0.1437
     24 H          65.8074   90.6225   14.9017 H       1  UNL1        0.1437
     25 C          61.2330   90.2199   10.6694 C.3     1  UNL1        0.0067
     26 C          62.7152   89.9898   10.6582 C.3     1  UNL1        0.0460
     27 C          62.6839   82.8750   14.2872 C.ar    1  UNL1        0.0243
     28 C          63.7361   81.9039   13.8403 C.ar    1  UNL1        0.0020
     29 C          63.3649   80.4824   13.5378 C.ar    1  UNL1        0.0318
     30 C          61.9415   80.0319   13.6821 C.ar    1  UNL1        0.1674
     31 F          61.5703   78.6104   13.3795 F       1  UNL1       -0.2018
     32 C          60.8893   81.0030   14.1290 C.ar    1  UNL1        0.1672
     33 F          59.4658   80.5526   14.2733 F       1  UNL1       -0.2018
     34 C          61.2604   82.4245   14.4315 C.ar    1  UNL1        0.0315
     35 C          62.9688   85.7661   10.9043 C.3     1  UNL1        0.1010
     36 C          61.6083   85.9556   10.3017 C.3     1  UNL1        0.0539
     37 C          61.4704   86.5645    8.9377 C.3     1  UNL1        0.1440
     38 O          60.4462   86.0332    7.9793 O.3     1  UNL1       -0.3510
     39 C          59.1364   86.7446    7.8107 C.3     1  UNL1        0.1741
@<TRIPOS>BOND
     1    25    26    1
     2    26    13    1
     3    13    14   ar
     4    14    15   ar
     5    15    16    1
     6    15    17   ar
     7    17    18   ar
     8    18    19    1
     9    18    20   ar
    10    20     1    1
    11     1     2   ar
    12     2     3   ar
    13     3     4   ar
    14     4     5   ar
    15     5     6   ar
    16     5     7    1
    17     7    35    1
    18    35    36    1
    19    36    37    1
    20    37    38    1
    21    38    39    1
    22     7     8   am
    23     8     9    2
    24     8    10    1
    25    10    11    1
    26    10    27    1
    27    27    28   ar
    28    28    29   ar
    29    29    30   ar
    30    30    31    1
    31    30    32   ar
    32    32    33    1
    33    32    34   ar
    34    10    12    1
    35    20    13   ar
    36     6     1   ar
    37    34    27   ar
    38    12     4    1
    39    16    21    1
    40    16    22    1
    41    19    23    1
    42    19    24    1
@<TRIPOS>MOLECULE
*****
 39 42 0 0 0
SMALL
GASTEIGER

@<TRIPOS>ATOM
      1 C          63.6783   89.2075   13.7623 C.ar    1  UNL1        0.0053
      2 C          63.0192   89.5139   12.4502 C.ar    1  UNL1        0.0033
      3 C          62.6389   88.3976   11.5232 C.ar    1  UNL1        0.0382
      4 C          62.9179   86.9750   11.9083 C.ar    1  UNL1        0.1529
      5 C          63.5770   86.6686   13.2204 C.ar    1  UNL1        0.0881
      6 C          63.9572   87.7848   14.1474 C.ar    1  UNL1        0.0181
      7 N          63.8559   85.2460   13.6055 N.am    1  UNL1       -0.2528
      8 C          63.4757   84.1297   12.6785 C.2     1  UNL1        0.2697
      9 O          63.7546   82.7071   13.0635 O.2     1  UNL1       -0.2704
     10 C          62.8165   84.4361   11.3663 C.3     1  UNL1        0.2198
     11 C          62.1771   84.2227   10.0263 C.3     1  UNL1        0.0579
     12 O          62.5376   85.8587   10.9812 O.3     1  UNL1       -0.4686
     13 C          65.0765   91.3394   14.2625 C.ar    1  UNL1        0.0645
     14 N          65.4567   92.4556   15.1895 N.ar    1  UNL1       -0.2183
     15 C          64.8190   92.5563   16.5435 C.ar    1  UNL1        0.2145
     16 N          65.1993   93.6725   17.4705 N.pl3   1  UNL1       -0.3274
     17 N          63.8011   91.5406   16.9705 N.ar    1  UNL1       -0.1995
     18 C          63.4208   90.4243   16.0434 C.ar    1  UNL1        0.1293
     19 N          62.4029   89.4087   16.4703 N.pl3   1  UNL1       -0.3425
     20 C          64.0585   90.3238   14.6894 C.ar    1  UNL1        0.0449
     21 H          65.8674   94.3391   17.1903 H       1  UNL1        0.1452
     22 H          64.7808   93.7385   18.3592 H       1  UNL1        0.1452
     23 H          61.9844   89.4747   17.3589 H       1  UNL1        0.1437
     24 H          62.1533   88.6761   15.8618 H       1  UNL1        0.1437
     25 C          65.5518   92.3537   11.9183 C.3     1  UNL1        0.0067
     26 C          65.7142   91.2388   12.9085 C.3     1  UNL1        0.0460
     27 C          62.8734   82.9394   11.2860 C.ar    1  UNL1        0.0243
     28 C          63.5804   82.2760   10.1414 C.ar    1  UNL1        0.0020
     29 C          63.6373   80.7792   10.0612 C.ar    1  UNL1        0.0318
     30 C          62.9872   79.9458   11.1254 C.ar    1  UNL1        0.1674
     31 F          63.0440   78.4490   11.0451 F       1  UNL1       -0.2018
     32 C          62.2801   80.6092   12.2699 C.ar    1  UNL1        0.1672
     33 F          61.6299   79.7757   13.3342 F       1  UNL1       -0.2018
     34 C          62.2232   82.1059   12.3503 C.ar    1  UNL1        0.0315
     35 C          64.5150   84.9395   14.9176 C.3     1  UNL1        0.1010
     36 C          63.6809   84.5644   16.1064 C.3     1  UNL1        0.0539
     37 C          62.2242   84.9208   16.1430 C.3     1  UNL1        0.1440
     38 O          61.7290   85.9540   17.1111 O.3     1  UNL1       -0.3510
     39 C          62.6605   86.5280   18.1371 C.3     1  UNL1        0.1741
@<TRIPOS>BOND
     1    25    26    1
     2    26    13    1
     3    13    14   ar
     4    14    15   ar
     5    15    16    1
     6    15    17   ar
     7    17    18   ar
     8    18    19    1
     9    18    20   ar
    10    20     1    1
    11     1     2   ar
    12     2     3   ar
    13     3     4   ar
    14     4     5   ar
    15     5     6   ar
    16     5     7    1
    17     7    35    1
    18    35    36    1
    19    36    37    1
    20    37    38    1
    21    38    39    1
    22     7     8   am
    23     8     9    2
    24     8    10    1
    25    10    11    1
    26    10    27    1
    27    27    28   ar
    28    28    29   ar
    29    29    30   ar
    30    30    31    1
    31    30    32   ar
    32    32    33    1
    33    32    34   ar
    34    10    12    1
    35    20    13   ar
    36     6     1   ar
    37    34    27   ar
    38    12     4    1
    39    16    21    1
    40    16    22    1
    41    19    23    1
    42    19    24    1
@<TRIPOS>MOLECULE
*****
 39 42 0 0 0
SMALL
GASTEIGER

@<TRIPOS>ATOM
      1 C          64.8950   90.3484   13.7532 C.ar    1  UNL1        0.0053
      2 C          63.9469   90.6415   12.6283 C.ar    1  UNL1        0.0033
      3 C          63.1562   89.5296   12.0051 C.ar    1  UNL1        0.0382
      4 C          63.3135   88.1247   12.5067 C.ar    1  UNL1        0.1529
      5 C          64.2615   87.8317   13.6315 C.ar    1  UNL1        0.0881
      6 C          65.0523   88.9435   14.2548 C.ar    1  UNL1        0.0181
      7 N          64.4188   86.4268   14.1331 N.am    1  UNL1       -0.2528
      8 C          63.6281   85.3150   13.5098 C.2     1  UNL1        0.2697
      9 O          63.7854   83.9101   14.0114 O.2     1  UNL1       -0.2704
     10 C          62.6800   85.6080   12.3849 C.3     1  UNL1        0.2198
     11 C          61.6640   85.3864   11.3039 C.3     1  UNL1        0.0579
     12 O          62.5227   87.0129   11.8833 O.3     1  UNL1       -0.4686
     13 C          66.8353   92.0720   13.6319 C.ar    1  UNL1        0.0645
     14 N          67.6261   93.1838   14.2551 N.ar    1  UNL1       -0.2183
     15 C          67.2673   93.6840   15.6231 C.ar    1  UNL1        0.2145
     16 N          68.0581   94.7958   16.2463 N.pl3   1  UNL1       -0.3274
     17 N          66.1178   93.0723   16.3677 N.ar    1  UNL1       -0.1995
     18 C          65.3270   91.9604   15.7444 C.ar    1  UNL1        0.1293
     19 N          64.1775   91.3488   16.4890 N.pl3   1  UNL1       -0.3425
     20 C          65.6858   91.4603   14.3765 C.ar    1  UNL1        0.0449
     21 H          68.8126   95.1972   15.7576 H       1  UNL1        0.1452
     22 H          67.8227   95.1241   17.1441 H       1  UNL1        0.1452
     23 H          63.9420   91.6770   17.3868 H       1  UNL1        0.1437
     24 H          63.6585   90.6190   16.0799 H       1  UNL1        0.1437
     25 C          66.9902   92.4517   11.0663 C.3     1  UNL1        0.0067
     26 C          67.1940   91.5718   12.2639 C.3     1  UNL1        0.0460
     27 C          62.4845   84.1262   12.5111 C.ar    1  UNL1        0.0243
     28 C          61.8792   83.5530   13.7581 C.ar    1  UNL1        0.0020
     29 C          61.6836   82.0711   13.8842 C.ar    1  UNL1        0.0318
     30 C          62.0934   81.1625   12.7634 C.ar    1  UNL1        0.1674
     31 F          61.8979   79.6806   12.8895 F       1  UNL1       -0.2018
     32 C          62.6987   81.7357   11.5164 C.ar    1  UNL1        0.1672
     33 F          63.1085   80.8269   10.3955 F       1  UNL1       -0.2018
     34 C          62.8943   83.2175   11.3902 C.ar    1  UNL1        0.0315
     35 C          65.3669   86.1338   15.2579 C.3     1  UNL1        0.1010
     36 C          64.8399   85.6488   16.5759 C.3     1  UNL1        0.0539
     37 C          63.3674   85.6968   16.8583 C.3     1  UNL1        0.1440
     38 O          62.7927   86.8320   17.6527 O.3     1  UNL1       -0.3510
     39 C          63.0030   88.2464   17.1997 C.3     1  UNL1        0.1741
@<TRIPOS>BOND
     1    25    26    1
     2    26    13    1
     3    13    14   ar
     4    14    15   ar
     5    15    16    1
     6    15    17   ar
     7    17    18   ar
     8    18    19    1
     9    18    20   ar
    10    20     1    1
    11     1     2   ar
    12     2     3   ar
    13     3     4   ar
    14     4     5   ar
    15     5     6   ar
    16     5     7    1
    17     7    35    1
    18    35    36    1
    19    36    37    1
    20    37    38    1
    21    38    39    1
    22     7     8   am
    23     8     9    2
    24     8    10    1
    25    10    11    1
    26    10    27    1
    27    27    28   ar
    28    28    29   ar
    29    29    30   ar
    30    30    31    1
    31    30    32   ar
    32    32    33    1
    33    32    34   ar
    34    10    12    1
    35    20    13   ar
    36     6     1   ar
    37    34    27   ar
    38    12     4    1
    39    16    21    1
    40    16    22    1
    41    19    23    1
    42    19    24    1
@<TRIPOS>MOLECULE
*****
 39 42 0 0 0
SMALL
GASTEIGER

@<TRIPOS>ATOM
      1 C          62.7970   83.8366   11.5747 C.ar    1  UNL1        0.0053
      2 C          62.0867   84.7052   10.5793 C.ar    1  UNL1        0.0033
      3 C          62.0828   86.1952   10.7521 C.ar    1  UNL1        0.0382
      4 C          62.7892   86.8166   11.9203 C.ar    1  UNL1        0.1529
      5 C          63.4996   85.9480   12.9158 C.ar    1  UNL1        0.0881
      6 C          63.5035   84.4580   12.7430 C.ar    1  UNL1        0.0181
      7 N          64.2060   86.5694   14.0840 N.am    1  UNL1       -0.2528
      8 C          64.2021   88.0593   14.2569 C.2     1  UNL1        0.2697
      9 O          64.9085   88.6807   15.4251 O.2     1  UNL1       -0.2704
     10 C          63.4917   88.9280   13.2614 C.3     1  UNL1        0.2198
     11 C          62.9629   90.1611   12.5907 C.3     1  UNL1        0.0579
     12 O          62.7853   88.3066   12.0931 O.3     1  UNL1       -0.4686
     13 C          62.2113   81.4668   12.4642 C.ar    1  UNL1        0.0645
     14 N          62.2152   79.9768   12.2914 N.ar    1  UNL1       -0.2183
     15 C          62.8088   79.3665   11.0564 C.ar    1  UNL1        0.2145
     16 N          62.8127   77.8765   10.8837 N.pl3   1  UNL1       -0.3274
     17 N          63.3985   80.2462    9.9942 N.ar    1  UNL1       -0.1995
     18 C          63.3946   81.7363   10.1670 C.ar    1  UNL1        0.1293
     19 N          63.9843   82.6160    9.1048 N.pl3   1  UNL1       -0.3425
     20 C          62.8010   82.3465   11.4019 C.ar    1  UNL1        0.0449
     21 H          62.4257   77.2991   11.5809 H       1  UNL1        0.1452
     22 H          63.2023   77.4759   10.0732 H       1  UNL1        0.1452
     23 H          64.3739   82.2155    8.2942 H       1  UNL1        0.1437
     24 H          63.9817   83.5940    9.2181 H       1  UNL1        0.1437
     25 C          62.4365   82.1831   14.9514 C.3     1  UNL1        0.0067
     26 C          61.6176   82.0772   13.6992 C.3     1  UNL1        0.0460
     27 C          64.0145   89.9776   14.1967 C.ar    1  UNL1        0.0243
     28 C          63.3142   90.2394   15.4971 C.ar    1  UNL1        0.0020
     29 C          63.8370   91.2891   16.4325 C.ar    1  UNL1        0.0318
     30 C          65.0600   92.0770   16.0675 C.ar    1  UNL1        0.1674
     31 F          65.5829   93.1267   17.0029 F       1  UNL1       -0.2018
     32 C          65.7603   91.8152   14.7671 C.ar    1  UNL1        0.1672
     33 F          66.9834   92.6032   14.4021 F       1  UNL1       -0.2018
     34 C          65.2376   90.7656   13.8317 C.ar    1  UNL1        0.0315
     35 C          64.9163   85.7008   15.0795 C.3     1  UNL1        0.1010
     36 C          64.2109   85.2588   16.3273 C.3     1  UNL1        0.0539
     37 C          62.7118   85.2318   16.3719 C.3     1  UNL1        0.1440
     38 O          61.9808   85.9563   17.4631 O.3     1  UNL1       -0.3510
     39 C          62.6720   87.0381   18.2389 C.3     1  UNL1        0.1741
@<TRIPOS>BOND
     1    25    26    1
     2    26    13    1
     3    13    14   ar
     4    14    15   ar
     5    15    16    1
     6    15    17   ar
     7    17    18   ar
     8    18    19    1
     9    18    20   ar
    10    20     1    1
    11     1     2   ar
    12     2     3   ar
    13     3     4   ar
    14     4     5   ar
    15     5     6   ar
    16     5     7    1
    17     7    35    1
    18    35    36    1
    19    36    37    1
    20    37    38    1
    21    38    39    1
    22     7     8   am
    23     8     9    2
    24     8    10    1
    25    10    11    1
    26    10    27    1
    27    27    28   ar
    28    28    29   ar
    29    29    30   ar
    30    30    31    1
    31    30    32   ar
    32    32    33    1
    33    32    34   ar
    34    10    12    1
    35    20    13   ar
    36     6     1   ar
    37    34    27   ar
    38    12     4    1
    39    16    21    1
    40    16    22    1
    41    19    23    1
    42    19    24    1
@<TRIPOS>MOLECULE
*****
 39 42 0 0 0
SMALL
GASTEIGER

@<TRIPOS>ATOM
      1 C          62.6280   84.2143   12.5246 C.ar    1  UNL1        0.0053
      2 C          61.8755   84.8664   11.4027 C.ar    1  UNL1        0.0033
      3 C          61.9814   86.3474   11.1898 C.ar    1  UNL1        0.0382
      4 C          62.8397   87.1763   12.0988 C.ar    1  UNL1        0.1529
      5 C          63.5922   86.5243   13.2206 C.ar    1  UNL1        0.0881
      6 C          63.4863   85.0433   13.4335 C.ar    1  UNL1        0.0181
      7 N          64.4505   87.3532   14.1295 N.am    1  UNL1       -0.2528
      8 C          64.5564   88.8342   13.9166 C.2     1  UNL1        0.2697
      9 O          65.4147   89.6631   14.8255 O.2     1  UNL1       -0.2704
     10 C          63.8039   89.4864   12.7947 C.3     1  UNL1        0.2198
     11 C          63.2871   90.5552   11.8780 C.3     1  UNL1        0.0579
     12 O          62.9455   88.6574   11.8858 O.3     1  UNL1       -0.4686
     13 C          62.8571   81.7892   11.6210 C.ar    1  UNL1        0.0645
     14 N          62.7513   80.3082   11.8339 N.ar    1  UNL1       -0.2183
     15 C          62.3106   79.7711   13.1633 C.ar    1  UNL1        0.2145
     16 N          62.2047   78.2901   13.3762 N.pl3   1  UNL1       -0.3274
     17 N          61.9756   80.7152   14.2799 N.ar    1  UNL1       -0.1995
     18 C          62.0814   82.1963   14.0669 C.ar    1  UNL1        0.1293
     19 N          61.7465   83.1403   15.1834 N.pl3   1  UNL1       -0.3425
     20 C          62.5222   82.7332   12.7375 C.ar    1  UNL1        0.0449
     21 H          62.4246   77.6705   12.6434 H       1  UNL1        0.1452
     22 H          61.9155   77.9377   14.2488 H       1  UNL1        0.1452
     23 H          61.4573   82.7879   16.0560 H       1  UNL1        0.1437
     24 H          61.8160   84.1124   15.0437 H       1  UNL1        0.1437
     25 C          64.6684   82.9162   10.1380 C.3     1  UNL1        0.0067
     26 C          63.2979   82.3263   10.2915 C.3     1  UNL1        0.0460
     27 C          64.4827   90.6865   13.3853 C.ar    1  UNL1        0.0243
     28 C          65.3711   91.5416   12.5312 C.ar    1  UNL1        0.0020
     29 C          66.0499   92.7418   13.1218 C.ar    1  UNL1        0.0318
     30 C          65.8405   93.0868   14.5663 C.ar    1  UNL1        0.1674
     31 F          66.5194   94.2870   15.1569 F       1  UNL1       -0.2018
     32 C          64.9522   92.2316   15.4205 C.ar    1  UNL1        0.1672
     33 F          64.7428   92.5766   16.8652 F       1  UNL1       -0.2018
     34 C          64.2733   91.0315   14.8300 C.ar    1  UNL1        0.0315
     35 C          65.2030   86.7011   15.2513 C.3     1  UNL1        0.1010
     36 C          64.5469   85.6305   16.0719 C.3     1  UNL1        0.0539
     37 C          63.4237   85.9811   17.0022 C.3     1  UNL1        0.1440
     38 O          62.5664   87.1802   16.7245 O.3     1  UNL1       -0.3510
     39 C          62.9893   88.5339   17.2131 C.3     1  UNL1        0.1741
@<TRIPOS>BOND
     1    25    26    1
     2    26    13    1
     3    13    14   ar
     4    14    15   ar
     5    15    16    1
     6    15    17   ar
     7    17    18   ar
     8    18    19    1
     9    18    20   ar
    10    20     1    1
    11     1     2   ar
    12     2     3   ar
    13     3     4   ar
    14     4     5   ar
    15     5     6   ar
    16     5     7    1
    17     7    35    1
    18    35    36    1
    19    36    37    1
    20    37    38    1
    21    38    39    1
    22     7     8   am
    23     8     9    2
    24     8    10    1
    25    10    11    1
    26    10    27    1
    27    27    28   ar
    28    28    29   ar
    29    29    30   ar
    30    30    31    1
    31    30    32   ar
    32    32    33    1
    33    32    34   ar
    34    10    12    1
    35    20    13   ar
    36     6     1   ar
    37    34    27   ar
    38    12     4    1
    39    16    21    1
    40    16    22    1
    41    19    23    1
    42    19    24    1
@<TRIPOS>MOLECULE
*****
 39 42 0 0 0
SMALL
GASTEIGER

@<TRIPOS>ATOM
      1 C          64.1708   89.8241   13.0326 C.ar    1  UNL1        0.0053
      2 C          63.2304   89.9460   11.8704 C.ar    1  UNL1        0.0033
      3 C          62.5811   88.7204   11.2993 C.ar    1  UNL1        0.0382
      4 C          62.8722   87.3728   11.8904 C.ar    1  UNL1        0.1529
      5 C          63.8125   87.2509   13.0526 C.ar    1  UNL1        0.0881
      6 C          64.4618   88.4765   13.6237 C.ar    1  UNL1        0.0181
      7 N          64.1036   85.9034   13.6437 N.am    1  UNL1       -0.2528
      8 C          63.4543   84.6777   13.0726 C.2     1  UNL1        0.2697
      9 O          63.7454   83.3302   13.6637 O.2     1  UNL1       -0.2704
     10 C          62.5139   84.7996   11.9103 C.3     1  UNL1        0.2198
     11 C          61.5595   84.4061   10.8221 C.3     1  UNL1        0.0579
     12 O          62.2228   86.1472   11.3192 O.3     1  UNL1       -0.4686
     13 C          64.8916   91.2370   15.0903 C.ar    1  UNL1        0.0645
     14 N          65.5409   92.4626   15.6615 N.ar    1  UNL1       -0.2183
     15 C          66.1188   93.5010   14.7461 C.ar    1  UNL1        0.2145
     16 N          66.7681   94.7266   15.3173 N.pl3   1  UNL1       -0.3274
     17 N          66.0473   93.3138   13.2596 N.ar    1  UNL1       -0.1995
     18 C          65.3979   92.0881   12.6884 C.ar    1  UNL1        0.1293
     19 N          65.3264   91.9008   11.2019 N.pl3   1  UNL1       -0.3425
     20 C          64.8201   91.0497   13.6038 C.ar    1  UNL1        0.0449
     21 H          66.8150   94.8495   16.2930 H       1  UNL1        0.1452
     22 H          67.1473   95.4081   14.7165 H       1  UNL1        0.1452
     23 H          65.7057   92.5823   10.6011 H       1  UNL1        0.1437
     24 H          64.9003   91.0964   10.8270 H       1  UNL1        0.1437
     25 C          62.8289   90.1139   16.2013 C.3     1  UNL1        0.0067
     26 C          64.3137   90.1986   16.0057 C.3     1  UNL1        0.0460
     27 C          62.4735   83.3154   12.1235 C.ar    1  UNL1        0.0243
     28 C          63.1500   82.3989   11.1476 C.ar    1  UNL1        0.0020
     29 C          63.1096   80.9146   11.3608 C.ar    1  UNL1        0.0318
     30 C          62.3928   80.3469   12.5498 C.ar    1  UNL1        0.1674
     31 F          62.3524   78.8627   12.7631 F       1  UNL1       -0.2018
     32 C          61.7164   81.2635   13.5257 C.ar    1  UNL1        0.1672
     33 F          60.9996   80.6958   14.7148 F       1  UNL1       -0.2018
     34 C          61.7567   82.7477   13.3126 C.ar    1  UNL1        0.0315
     35 C          65.0440   85.7815   14.8059 C.3     1  UNL1        0.1010
     36 C          64.5156   85.4270   16.1643 C.3     1  UNL1        0.0539
     37 C          63.0370   85.3035   16.3851 C.3     1  UNL1        0.1440
     38 O          62.2705   86.4443   16.9857 O.3     1  UNL1       -0.3510
     39 C          62.7116   87.0404   18.2895 C.3     1  UNL1        0.1741
@<TRIPOS>BOND
     1    25    26    1
     2    26    13    1
     3    13    14   ar
     4    14    15   ar
     5    15    16    1
     6    15    17   ar
     7    17    18   ar
     8    18    19    1
     9    18    20   ar
    10    20     1    1
    11     1     2   ar
    12     2     3   ar
    13     3     4   ar
    14     4     5   ar
    15     5     6   ar
    16     5     7    1
    17     7    35    1
    18    35    36    1
    19    36    37    1
    20    37    38    1
    21    38    39    1
    22     7     8   am
    23     8     9    2
    24     8    10    1
    25    10    11    1
    26    10    27    1
    27    27    28   ar
    28    28    29   ar
    29    29    30   ar
    30    30    31    1
    31    30    32   ar
    32    32    33    1
    33    32    34   ar
    34    10    12    1
    35    20    13   ar
    36     6     1   ar
    37    34    27   ar
    38    12     4    1
    39    16    21    1
    40    16    22    1
    41    19    23    1
    42    19    24    1
@<TRIPOS>MOLECULE
*****
 39 42 0 0 0
SMALL
GASTEIGER

@<TRIPOS>ATOM
      1 C          64.6642   90.6599   12.9987 C.ar    1  UNL1        0.0053
      2 C          65.0759   90.6002   14.4398 C.ar    1  UNL1        0.0033
      3 C          64.9000   89.3300   15.2181 C.ar    1  UNL1        0.0382
      4 C          64.3122   88.1196   14.5552 C.ar    1  UNL1        0.1529
      5 C          63.9004   88.1794   13.1141 C.ar    1  UNL1        0.0881
      6 C          64.0764   89.4495   12.3359 C.ar    1  UNL1        0.0181
      7 N          63.3126   86.9689   12.4512 N.am    1  UNL1       -0.2528
      8 C          63.1366   85.6988   13.2294 C.2     1  UNL1        0.2697
      9 O          62.5489   84.4884   12.5665 O.2     1  UNL1       -0.2704
     10 C          63.5484   85.6390   14.6706 C.3     1  UNL1        0.2198
     11 C          63.7846   85.0930   16.0476 C.3     1  UNL1        0.0579
     12 O          64.1362   86.8494   15.3335 O.3     1  UNL1       -0.4686
     13 C          64.1798   92.0877   10.8828 C.ar    1  UNL1        0.0645
     14 N          64.3558   93.3578   10.1045 N.ar    1  UNL1       -0.2183
     15 C          65.1920   94.4705   10.6639 C.ar    1  UNL1        0.2145
     16 N          65.3680   95.7406    9.8856 N.pl3   1  UNL1       -0.3274
     17 N          65.8523   94.3129   12.0015 N.ar    1  UNL1       -0.1995
     18 C          65.6764   93.0427   12.7798 C.ar    1  UNL1        0.1293
     19 N          66.3366   92.8852   14.1174 N.pl3   1  UNL1       -0.3425
     20 C          64.8401   91.9302   12.2204 C.ar    1  UNL1        0.0449
     21 H          64.9346   95.8440    9.0076 H       1  UNL1        0.1452
     22 H          65.9168   96.4708   10.2526 H       1  UNL1        0.1452
     23 H          66.8855   93.6154   14.4845 H       1  UNL1        0.1437
     24 H          66.2212   92.0515   14.6282 H       1  UNL1        0.1437
     25 C          61.8705   90.9306   10.6031 C.3     1  UNL1        0.0067
     26 C          63.3436   90.9751   10.3235 C.3     1  UNL1        0.0460
     27 C          63.0427   84.2390   14.4859 C.ar    1  UNL1        0.0243
     28 C          61.6088   83.9142   14.7831 C.ar    1  UNL1        0.0020
     29 C          61.1030   82.5141   14.5984 C.ar    1  UNL1        0.0318
     30 C          62.0311   81.4389   14.1166 C.ar    1  UNL1        0.1674
     31 F          61.5254   80.0388   13.9319 F       1  UNL1       -0.2018
     32 C          63.4650   81.7637   13.8194 C.ar    1  UNL1        0.1672
     33 F          64.3932   80.6883   13.3375 F       1  UNL1       -0.2018
     34 C          63.9709   83.1636   14.0040 C.ar    1  UNL1        0.0315
     35 C          62.9008   87.0287   11.0101 C.3     1  UNL1        0.1010
     36 C          61.5448   86.5387   10.5966 C.3     1  UNL1        0.0539
     37 C          60.3979   87.5005   10.4973 C.3     1  UNL1        0.1440
     38 O          59.9637   88.0139    9.1565 O.3     1  UNL1       -0.3510
     39 C          59.3824   87.0713    8.1447 C.3     1  UNL1        0.1741
@<TRIPOS>BOND
     1    25    26    1
     2    26    13    1
     3    13    14   ar
     4    14    15   ar
     5    15    16    1
     6    15    17   ar
     7    17    18   ar
     8    18    19    1
     9    18    20   ar
    10    20     1    1
    11     1     2   ar
    12     2     3   ar
    13     3     4   ar
    14     4     5   ar
    15     5     6   ar
    16     5     7    1
    17     7    35    1
    18    35    36    1
    19    36    37    1
    20    37    38    1
    21    38    39    1
    22     7     8   am
    23     8     9    2
    24     8    10    1
    25    10    11    1
    26    10    27    1
    27    27    28   ar
    28    28    29   ar
    29    29    30   ar
    30    30    31    1
    31    30    32   ar
    32    32    33    1
    33    32    34   ar
    34    10    12    1
    35    20    13   ar
    36     6     1   ar
    37    34    27   ar
    38    12     4    1
    39    16    21    1
    40    16    22    1
    41    19    23    1
    42    19    24    1
