@<TRIPOS>MOLECULE
*****
 38 41 0 0 0
SMALL
GASTEIGER

@<TRIPOS>ATOM
      1 C          62.3836   86.4545   11.8048 C.ar    1  UNL1        0.0193
      2 C          61.1033   87.2234   11.9442 C.ar    1  UNL1        0.0028
      3 C          60.2403   87.4675   10.7418 C.ar    1  UNL1        0.0148
      4 C          60.6577   86.9427    9.4000 C.ar    1  UNL1        0.0516
      5 C          61.9381   86.1739    9.2607 C.ar    1  UNL1        0.0148
      6 C          62.8010   85.9298   10.4630 C.ar    1  UNL1        0.0028
      7 N          63.2129   83.4755   12.8335 N.ar    1  UNL1       -0.2758
      8 C          63.8469   82.4084   13.6758 C.ar    1  UNL1        0.3516
      9 O          63.7376   80.9290   13.4538 O.2     1  UNL1       -0.2444
     10 N          64.6092   83.0806   14.7790 N.ar    1  UNL1       -0.1735
     11 C          64.4464   84.5631   14.6185 C.ar    1  UNL1        0.1639
     12 N          64.9725   85.7222   15.4120 N.ar    1  UNL1       -0.3202
     13 C          64.6356   87.1255   15.0030 C.ar    1  UNL1        0.1761
     14 N          63.7726   87.3696   13.8006 N.ar    1  UNL1       -0.2240
     15 C          63.2466   86.2104   13.0072 C.ar    1  UNL1        0.1018
     16 C          63.5835   84.8072   13.4162 C.ar    1  UNL1        0.1157
     17 H          65.5389   85.5620   16.2011 H       1  UNL1        0.1689
     18 C          62.8650   82.4005   10.4940 C.3     1  UNL1        0.0266
     19 C          62.3585   83.2505   11.6214 C.3     1  UNL1        0.1108
     20 N          59.7948   87.1868    8.1976 N.am    1  UNL1       -0.2681
     21 C          59.8605   88.5035    7.4821 C.2     1  UNL1        0.3082
     22 O          60.7892   89.5761    7.9690 O.2     1  UNL1       -0.2522
     23 N          58.9976   88.7476    6.2797 N.am    1  UNL1       -0.2681
     24 H          59.1852   86.4828    7.8781 H       1  UNL1        0.1564
     25 H          58.3880   88.0436    5.9602 H       1  UNL1        0.1564
     26 C          59.0633   90.0643    5.5642 C.ar    1  UNL1        0.0517
     27 C          57.8756   90.9804    5.5685 C.ar    1  UNL1        0.0147
     28 C          57.9414   92.2972    4.8530 C.ar    1  UNL1        0.0014
     29 C          59.1949   92.6978    4.1332 C.ar    1  UNL1        0.0046
     30 C          60.3827   91.7816    4.1289 C.ar    1  UNL1        0.0546
     31 C          60.3169   90.4650    4.8444 C.ar    1  UNL1        0.0192
     32 C          61.6363   92.1822    3.4091 C.2     1  UNL1        0.2458
     33 O          62.9411   91.5281    3.7546 O.2     1  UNL1       -0.2701
     34 N          61.5849   93.2370    2.3438 N.am    1  UNL1       -0.3025
     35 H          60.7285   93.6663    2.1170 H       1  UNL1        0.1497
     36 C          62.8385   93.6376    1.6240 C.3     1  UNL1        0.0720
     37 C          63.0323   93.2563    0.1863 C.3     1  UNL1        0.0213
     38 C          63.8983   94.4196    2.3420 C.3     1  UNL1        0.0213
@<TRIPOS>BOND
     1    18    19    1
     2    19     7    1
     3     7     8   ar
     4     8     9    2
     5     8    10   ar
     6    10    11   ar
     7    11    12   ar
     8    12    13   ar
     9    13    14   ar
    10    14    15   ar
    11    15     1    1
    12     1     2   ar
    13     2     3   ar
    14     3     4   ar
    15     4    20    1
    16    20    21   am
    17    21    22    2
    18    21    23   am
    19    23    26    1
    20    26    27   ar
    21    27    28   ar
    22    28    29   ar
    23    29    30   ar
    24    30    32    1
    25    32    33    2
    26    32    34   am
    27    34    36    1
    28    36    37    1
    29    36    38    1
    30    30    31   ar
    31     4     5   ar
    32     5     6   ar
    33    15    16   ar
    34    16     7   ar
    35    16    11    1
    36     6     1   ar
    37    31    26   ar
    38    12    17    1
    39    20    24    1
    40    23    25    1
    41    34    35    1
@<TRIPOS>MOLECULE
*****
 38 41 0 0 0
SMALL
GASTEIGER

@<TRIPOS>ATOM
      1 C          62.0606   85.9698   11.4319 C.ar    1  UNL1        0.0193
      2 C          60.8911   86.8960   11.5880 C.ar    1  UNL1        0.0028
      3 C          60.0784   87.2865   10.3892 C.ar    1  UNL1        0.0148
      4 C          60.4352   86.7509    9.0343 C.ar    1  UNL1        0.0516
      5 C          61.6047   85.8247    8.8783 C.ar    1  UNL1        0.0148
      6 C          62.4174   85.4342   10.0770 C.ar    1  UNL1        0.0028
      7 N          63.7119   88.1147   13.2466 N.ar    1  UNL1       -0.2758
      8 C          64.5904   88.6431   14.3415 C.ar    1  UNL1        0.3516
      9 O          64.9665   90.0795   14.5545 O.2     1  UNL1       -0.2444
     10 N          65.0268   87.4829   15.1862 N.ar    1  UNL1       -0.1735
     11 C          64.4180   86.2375   14.6132 C.ar    1  UNL1        0.1639
     12 N          64.4986   84.7983   15.0282 N.ar    1  UNL1       -0.3202
     13 C          63.7666   83.7496   14.2444 C.ar    1  UNL1        0.1761
     14 N          62.9539   84.1402   13.0456 N.ar    1  UNL1       -0.2240
     15 C          62.8733   85.5793   12.6306 C.ar    1  UNL1        0.1018
     16 C          63.6053   86.6280   13.4144 C.ar    1  UNL1        0.1157
     17 H          65.0320   84.5420   15.8150 H       1  UNL1        0.1689
     18 C          62.2293   90.1275   12.5386 C.3     1  UNL1        0.0266
     19 C          63.0552   88.9300   12.1723 C.3     1  UNL1        0.1108
     20 N          59.6225   87.1414    7.8356 N.am    1  UNL1       -0.2681
     21 C          59.7901   88.5019    7.2267 C.2     1  UNL1        0.3082
     22 O          60.7705   89.4720    7.8166 O.2     1  UNL1       -0.2522
     23 N          58.9775   88.8924    6.0279 N.am    1  UNL1       -0.2681
     24 H          58.9791   86.5047    7.4484 H       1  UNL1        0.1564
     25 H          58.3340   88.2558    5.6408 H       1  UNL1        0.1564
     26 C          59.1451   90.2531    5.4190 C.ar    1  UNL1        0.0517
     27 C          58.0595   91.2781    5.5628 C.ar    1  UNL1        0.0147
     28 C          58.2272   92.6387    4.9539 C.ar    1  UNL1        0.0014
     29 C          59.4805   92.9742    4.2012 C.ar    1  UNL1        0.0046
     30 C          60.5662   91.9491    4.0574 C.ar    1  UNL1        0.0546
     31 C          60.3985   90.5886    4.6663 C.ar    1  UNL1        0.0192
     32 C          61.8195   92.2846    3.3047 C.2     1  UNL1        0.2458
     33 O          63.1024   91.5796    3.6320 O.2     1  UNL1       -0.2701
     34 N          61.7900   93.3253    2.2247 N.am    1  UNL1       -0.3025
     35 H          60.9479   93.7880    2.0100 H       1  UNL1        0.1497
     36 C          63.0433   93.6608    1.4720 C.3     1  UNL1        0.0720
     37 C          63.1426   93.3557    0.0068 C.3     1  UNL1        0.0213
     38 C          64.1974   94.3014    2.1847 C.3     1  UNL1        0.0213
@<TRIPOS>BOND
     1    18    19    1
     2    19     7    1
     3     7     8   ar
     4     8     9    2
     5     8    10   ar
     6    10    11   ar
     7    11    12   ar
     8    12    13   ar
     9    13    14   ar
    10    14    15   ar
    11    15     1    1
    12     1     2   ar
    13     2     3   ar
    14     3     4   ar
    15     4    20    1
    16    20    21   am
    17    21    22    2
    18    21    23   am
    19    23    26    1
    20    26    27   ar
    21    27    28   ar
    22    28    29   ar
    23    29    30   ar
    24    30    32    1
    25    32    33    2
    26    32    34   am
    27    34    36    1
    28    36    37    1
    29    36    38    1
    30    30    31   ar
    31     4     5   ar
    32     5     6   ar
    33    15    16   ar
    34    16     7   ar
    35    16    11    1
    36     6     1   ar
    37    31    26   ar
    38    12    17    1
    39    20    24    1
    40    23    25    1
    41    34    35    1
@<TRIPOS>MOLECULE
*****
 38 41 0 0 0
SMALL
GASTEIGER

@<TRIPOS>ATOM
      1 C          62.4959   89.6477   12.9828 C.ar    1  UNL1        0.0193
      2 C          61.2373   90.3055   12.4998 C.ar    1  UNL1        0.0028
      3 C          60.6217   89.8827   11.1989 C.ar    1  UNL1        0.0148
      4 C          61.2648   88.8023   10.3810 C.ar    1  UNL1        0.0516
      5 C          62.5234   88.1445   10.8639 C.ar    1  UNL1        0.0148
      6 C          63.1389   88.5673   12.1648 C.ar    1  UNL1        0.0028
      7 N          64.9181   91.8180   13.1913 N.ar    1  UNL1       -0.2758
      8 C          65.9625   92.6992   13.8100 C.ar    1  UNL1        0.3516
      9 O          66.8921   93.6164   13.0720 O.2     1  UNL1       -0.2444
     10 N          65.9141   92.5020   15.2961 N.ar    1  UNL1       -0.1735
     11 C          64.8398   91.4990   15.5960 C.ar    1  UNL1        0.1639
     12 N          64.3426   90.9160   16.8855 N.ar    1  UNL1       -0.3202
     13 C          63.2299   89.9103   16.8741 C.ar    1  UNL1        0.1761
     14 N          62.6143   89.4875   15.5732 N.ar    1  UNL1       -0.2240
     15 C          63.1115   90.0705   14.2837 C.ar    1  UNL1        0.1018
     16 C          64.2243   91.0762   14.2951 C.ar    1  UNL1        0.1157
     17 H          64.7467   91.1935   17.7393 H       1  UNL1        0.1689
     18 C          65.0343   92.7920   10.7854 C.3     1  UNL1        0.0266
     19 C          64.6199   91.6994   11.7260 C.3     1  UNL1        0.1108
     20 N          60.6492   88.3795    9.0801 N.am    1  UNL1       -0.2681
     21 C          60.0914   89.4105    8.1442 C.2     1  UNL1        0.3082
     22 O          60.1492   90.8643    8.5092 O.2     1  UNL1       -0.2522
     23 N          59.4759   88.9877    6.8433 N.am    1  UNL1       -0.2681
     24 H          60.6113   87.4254    8.8405 H       1  UNL1        0.1564
     25 H          59.4379   88.0336    6.6037 H       1  UNL1        0.1564
     26 C          58.9181   90.0188    5.9074 C.ar    1  UNL1        0.0517
     27 C          57.4372   90.2478    5.8402 C.ar    1  UNL1        0.0147
     28 C          56.8794   91.2789    4.9043 C.ar    1  UNL1        0.0014
     29 C          57.8025   92.0809    4.0356 C.ar    1  UNL1        0.0046
     30 C          59.2835   91.8518    4.1028 C.ar    1  UNL1        0.0546
     31 C          59.8412   90.8208    5.0387 C.ar    1  UNL1        0.0192
     32 C          60.2066   92.6538    3.2341 C.2     1  UNL1        0.2458
     33 O          59.8901   94.0873    2.9262 O.2     1  UNL1       -0.2701
     34 N          61.4463   92.0223    2.6734 N.am    1  UNL1       -0.3025
     35 H          61.6540   91.0814    2.8755 H       1  UNL1        0.1497
     36 C          62.3694   92.8243    1.8047 C.3     1  UNL1        0.0720
     37 C          63.6831   93.3030    2.3477 C.3     1  UNL1        0.0213
     38 C          61.9788   93.1475    0.3929 C.3     1  UNL1        0.0213
@<TRIPOS>BOND
     1    18    19    1
     2    19     7    1
     3     7     8   ar
     4     8     9    2
     5     8    10   ar
     6    10    11   ar
     7    11    12   ar
     8    12    13   ar
     9    13    14   ar
    10    14    15   ar
    11    15     1    1
    12     1     2   ar
    13     2     3   ar
    14     3     4   ar
    15     4    20    1
    16    20    21   am
    17    21    22    2
    18    21    23   am
    19    23    26    1
    20    26    27   ar
    21    27    28   ar
    22    28    29   ar
    23    29    30   ar
    24    30    32    1
    25    32    33    2
    26    32    34   am
    27    34    36    1
    28    36    37    1
    29    36    38    1
    30    30    31   ar
    31     4     5   ar
    32     5     6   ar
    33    15    16   ar
    34    16     7   ar
    35    16    11    1
    36     6     1   ar
    37    31    26   ar
    38    12    17    1
    39    20    24    1
    40    23    25    1
    41    34    35    1
@<TRIPOS>MOLECULE
*****
 38 41 0 0 0
SMALL
GASTEIGER

@<TRIPOS>ATOM
      1 C          60.8486   87.9340    9.4701 C.ar    1  UNL1        0.0193
      2 C          60.4210   89.3490    9.7245 C.ar    1  UNL1        0.0028
      3 C          59.6926   90.1152    8.6603 C.ar    1  UNL1        0.0148
      4 C          59.3919   89.4663    7.3418 C.ar    1  UNL1        0.0516
      5 C          59.8195   88.0513    7.0874 C.ar    1  UNL1        0.0148
      6 C          60.5479   87.2851    8.1516 C.ar    1  UNL1        0.0028
      7 N          62.7216   89.3531   11.7281 N.ar    1  UNL1       -0.2758
      8 C          63.6361   89.4875   12.9094 C.ar    1  UNL1        0.3516
      9 O          64.1895   90.7707   13.4546 O.2     1  UNL1       -0.2444
     10 N          63.9001   88.1134   13.4499 N.ar    1  UNL1       -0.1735
     11 C          63.1488   87.1298   12.6026 C.ar    1  UNL1        0.1639
     12 N          63.0338   85.6354   12.6626 N.ar    1  UNL1       -0.3202
     13 C          62.1904   84.9072   11.6584 C.ar    1  UNL1        0.1761
     14 N          61.4620   85.6734   10.5942 N.ar    1  UNL1       -0.2240
     15 C          61.5770   87.1678   10.5343 C.ar    1  UNL1        0.1018
     16 C          62.4204   87.8959   11.5384 C.ar    1  UNL1        0.1157
     17 H          63.5118   85.1325   13.3610 H       1  UNL1        0.1689
     18 C          63.1513   91.3255   10.0924 C.3     1  UNL1        0.0266
     19 C          62.1999   90.4783   10.8845 C.3     1  UNL1        0.1108
     20 N          58.6635   90.2325    6.2776 N.am    1  UNL1       -0.2681
     21 C          59.4309   90.8948    5.1721 C.2     1  UNL1        0.3082
     22 O          60.9268   90.7910    5.1306 O.2     1  UNL1       -0.2522
     23 N          58.7025   91.6610    4.1079 N.am    1  UNL1       -0.2681
     24 H          57.6817   90.3007    6.3049 H       1  UNL1        0.1564
     25 H          57.7208   91.7292    4.1351 H       1  UNL1        0.1564
     26 C          59.4700   92.3234    3.0023 C.ar    1  UNL1        0.0517
     27 C          60.8677   92.8101    3.2465 C.ar    1  UNL1        0.0147
     28 C          61.6352   93.4724    2.1409 C.ar    1  UNL1        0.0014
     29 C          61.0050   93.6480    0.7911 C.ar    1  UNL1        0.0046
     30 C          59.6072   93.1613    0.5469 C.ar    1  UNL1        0.0546
     31 C          58.8398   92.4990    1.6525 C.ar    1  UNL1        0.0192
     32 C          58.9770   93.3369   -0.8029 C.2     1  UNL1        0.2458
     33 O          59.5003   94.3802   -1.7450 O.2     1  UNL1       -0.2701
     34 N          57.8235   92.4690   -1.2107 N.am    1  UNL1       -0.3025
     35 H          57.4800   91.7842   -0.5924 H       1  UNL1        0.1497
     36 C          57.1932   92.6446   -2.5605 C.3     1  UNL1        0.0720
     37 C          55.9915   93.5283   -2.7179 C.3     1  UNL1        0.0213
     38 C          57.7649   91.9365   -3.7529 C.3     1  UNL1        0.0213
@<TRIPOS>BOND
     1    18    19    1
     2    19     7    1
     3     7     8   ar
     4     8     9    2
     5     8    10   ar
     6    10    11   ar
     7    11    12   ar
     8    12    13   ar
     9    13    14   ar
    10    14    15   ar
    11    15     1    1
    12     1     2   ar
    13     2     3   ar
    14     3     4   ar
    15     4    20    1
    16    20    21   am
    17    21    22    2
    18    21    23   am
    19    23    26    1
    20    26    27   ar
    21    27    28   ar
    22    28    29   ar
    23    29    30   ar
    24    30    32    1
    25    32    33    2
    26    32    34   am
    27    34    36    1
    28    36    37    1
    29    36    38    1
    30    30    31   ar
    31     4     5   ar
    32     5     6   ar
    33    15    16   ar
    34    16     7   ar
    35    16    11    1
    36     6     1   ar
    37    31    26   ar
    38    12    17    1
    39    20    24    1
    40    23    25    1
    41    34    35    1
@<TRIPOS>MOLECULE
*****
 38 41 0 0 0
SMALL
GASTEIGER

@<TRIPOS>ATOM
      1 C          60.7302   88.1467    9.2076 C.ar    1  UNL1        0.0193
      2 C          60.3288   89.5537    9.5379 C.ar    1  UNL1        0.0028
      3 C          59.6402   90.3987    8.5074 C.ar    1  UNL1        0.0148
      4 C          59.3530   89.8367    7.1467 C.ar    1  UNL1        0.0516
      5 C          59.7543   88.4297    6.8165 C.ar    1  UNL1        0.0148
      6 C          60.4429   87.5847    7.8469 C.ar    1  UNL1        0.0028
      7 N          62.6386   89.3796   11.5439 N.ar    1  UNL1       -0.2758
      8 C          63.5477   89.4204   12.7363 C.ar    1  UNL1        0.3516
      9 O          64.1467   90.6528   13.3467 O.2     1  UNL1       -0.2444
     10 N          63.7528   88.0124   13.2112 N.ar    1  UNL1       -0.1735
     11 C          62.9704   87.1014   12.3123 C.ar    1  UNL1        0.1639
     12 N          62.7960   85.6117   12.2989 N.ar    1  UNL1       -0.3202
     13 C          61.9330   84.9670   11.2552 C.ar    1  UNL1        0.1761
     14 N          61.2444   85.8120   10.2247 N.ar    1  UNL1       -0.2240
     15 C          61.4188   87.3017   10.2381 C.ar    1  UNL1        0.1018
     16 C          62.2818   87.9464   11.2818 C.ar    1  UNL1        0.1157
     17 H          63.2479   85.0571   12.9752 H       1  UNL1        0.1689
     18 C          63.1640   91.4382   10.0484 C.3     1  UNL1        0.0266
     19 C          62.1688   90.5641   10.7525 C.3     1  UNL1        0.1108
     20 N          58.6644   90.6817    6.1163 N.am    1  UNL1       -0.2681
     21 C          59.4293   91.1905    4.9306 C.2     1  UNL1        0.3082
     22 O          60.8829   90.8542    4.7752 O.2     1  UNL1       -0.2522
     23 N          58.7407   92.0355    3.9001 N.am    1  UNL1       -0.2681
     24 H          57.7104   90.9024    6.2182 H       1  UNL1        0.1564
     25 H          57.7867   92.2562    4.0021 H       1  UNL1        0.1564
     26 C          59.5057   92.5442    2.7144 C.ar    1  UNL1        0.0517
     27 C          58.9003   92.4716    1.3439 C.ar    1  UNL1        0.0147
     28 C          59.6654   92.9804    0.1581 C.ar    1  UNL1        0.0014
     29 C          61.0357   93.5617    0.3429 C.ar    1  UNL1        0.0046
     30 C          61.6411   93.6343    1.7134 C.ar    1  UNL1        0.0546
     31 C          60.8761   93.1256    2.8991 C.ar    1  UNL1        0.0192
     32 C          63.0114   94.2157    1.8982 C.2     1  UNL1        0.2458
     33 O          64.1651   93.3216    2.2440 O.2     1  UNL1       -0.2701
     34 N          63.2281   95.6913    1.7372 N.am    1  UNL1       -0.3025
     35 H          62.4709   96.2781    1.5103 H       1  UNL1        0.1497
     36 C          64.5984   96.2726    1.9220 C.3     1  UNL1        0.0720
     37 C          65.1154   96.5504    3.3024 C.3     1  UNL1        0.0213
     38 C          65.4518   96.5762    0.7263 C.3     1  UNL1        0.0213
@<TRIPOS>BOND
     1    18    19    1
     2    19     7    1
     3     7     8   ar
     4     8     9    2
     5     8    10   ar
     6    10    11   ar
     7    11    12   ar
     8    12    13   ar
     9    13    14   ar
    10    14    15   ar
    11    15     1    1
    12     1     2   ar
    13     2     3   ar
    14     3     4   ar
    15     4    20    1
    16    20    21   am
    17    21    22    2
    18    21    23   am
    19    23    26    1
    20    26    27   ar
    21    27    28   ar
    22    28    29   ar
    23    29    30   ar
    24    30    32    1
    25    32    33    2
    26    32    34   am
    27    34    36    1
    28    36    37    1
    29    36    38    1
    30    30    31   ar
    31     4     5   ar
    32     5     6   ar
    33    15    16   ar
    34    16     7   ar
    35    16    11    1
    36     6     1   ar
    37    31    26   ar
    38    12    17    1
    39    20    24    1
    40    23    25    1
    41    34    35    1
@<TRIPOS>MOLECULE
*****
 38 41 0 0 0
SMALL
GASTEIGER

@<TRIPOS>ATOM
      1 C          72.3501   78.6026   10.1836 C.ar    1  UNL1        0.0193
      2 C          71.0669   78.4611   10.9474 C.ar    1  UNL1        0.0028
      3 C          71.0666   77.8116   12.2995 C.ar    1  UNL1        0.0148
      4 C          72.3494   77.3035   12.8878 C.ar    1  UNL1        0.0516
      5 C          73.6326   77.4449   12.1240 C.ar    1  UNL1        0.0148
      6 C          73.6329   78.0945   10.7719 C.ar    1  UNL1        0.0028
      7 N          72.2645   81.8317    9.7529 N.ar    1  UNL1       -0.2758
      8 C          72.2369   83.1516    9.0407 C.ar    1  UNL1        0.3516
      9 O          72.1895   84.5030    9.6899 O.2     1  UNL1       -0.2444
     10 N          72.2650   82.8827    7.5653 N.ar    1  UNL1       -0.1735
     11 C          72.3099   81.3967    7.3656 C.ar    1  UNL1        0.1639
     12 N          72.3511   80.5511    6.1274 N.ar    1  UNL1       -0.3202
     13 C          72.3919   79.0561    6.2412 C.ar    1  UNL1        0.1761
     14 N          72.3916   78.4065    7.5933 N.ar    1  UNL1       -0.2240
     15 C          72.3504   79.2521    8.8315 C.ar    1  UNL1        0.1018
     16 C          72.3096   80.7472    8.7177 C.ar    1  UNL1        0.1157
     17 H          72.3513   80.9774    5.2400 H       1  UNL1        0.1689
     18 C          73.5409   81.5503   11.9983 C.3     1  UNL1        0.0266
     19 C          72.2495   81.6316   11.2394 C.3     1  UNL1        0.1108
     20 N          72.3491   76.6540   14.2399 N.am    1  UNL1       -0.2681
     21 C          72.1506   75.1721   14.3600 C.2     1  UNL1        0.3082
     22 O          71.9523   74.3396   13.1280 O.2     1  UNL1       -0.2522
     23 N          72.1502   74.5226   15.7120 N.am    1  UNL1       -0.2681
     24 H          72.4792   77.2003   15.0484 H       1  UNL1        0.1564
     25 H          72.2803   75.0689   16.5206 H       1  UNL1        0.1564
     26 C          71.9517   73.0406   15.8321 C.ar    1  UNL1        0.0517
     27 C          72.3815   72.3248   17.0782 C.ar    1  UNL1        0.0147
     28 C          72.1829   70.8428   17.1983 C.ar    1  UNL1        0.0014
     29 C          71.5545   70.0767   16.0722 C.ar    1  UNL1        0.0046
     30 C          71.1247   70.7925   14.8260 C.ar    1  UNL1        0.0546
     31 C          71.3233   72.2744   14.7060 C.ar    1  UNL1        0.0192
     32 C          70.4963   70.0263   13.6999 C.2     1  UNL1        0.2458
     33 O          70.6507   68.5361   13.6286 O.2     1  UNL1       -0.2701
     34 N          69.7134   70.7506   12.6450 N.am    1  UNL1       -0.3025
     35 H          69.6121   71.7287   12.6918 H       1  UNL1        0.1497
     36 C          69.0850   69.9844   11.5189 C.3     1  UNL1        0.0720
     37 C          67.7636   69.3038   11.7203 C.3     1  UNL1        0.0213
     38 C          69.7781   69.8989   10.1913 C.3     1  UNL1        0.0213
@<TRIPOS>BOND
     1    18    19    1
     2    19     7    1
     3     7     8   ar
     4     8     9    2
     5     8    10   ar
     6    10    11   ar
     7    11    12   ar
     8    12    13   ar
     9    13    14   ar
    10    14    15   ar
    11    15     1    1
    12     1     2   ar
    13     2     3   ar
    14     3     4   ar
    15     4    20    1
    16    20    21   am
    17    21    22    2
    18    21    23   am
    19    23    26    1
    20    26    27   ar
    21    27    28   ar
    22    28    29   ar
    23    29    30   ar
    24    30    32    1
    25    32    33    2
    26    32    34   am
    27    34    36    1
    28    36    37    1
    29    36    38    1
    30    30    31   ar
    31     4     5   ar
    32     5     6   ar
    33    15    16   ar
    34    16     7   ar
    35    16    11    1
    36     6     1   ar
    37    31    26   ar
    38    12    17    1
    39    20    24    1
    40    23    25    1
    41    34    35    1
@<TRIPOS>MOLECULE
*****
 38 41 0 0 0
SMALL
GASTEIGER

@<TRIPOS>ATOM
      1 C          61.6473   88.2973   10.5301 C.ar    1  UNL1        0.0193
      2 C          62.0422   89.5965    9.8929 C.ar    1  UNL1        0.0028
      3 C          61.2401   90.1459    8.7506 C.ar    1  UNL1        0.0148
      4 C          60.0432   89.3961    8.2455 C.ar    1  UNL1        0.0516
      5 C          59.6484   88.0969    8.8827 C.ar    1  UNL1        0.0148
      6 C          60.4505   87.5475   10.0250 C.ar    1  UNL1        0.0028
      7 N          62.5318   85.1684   10.7502 N.ar    1  UNL1       -0.2758
      8 C          63.1577   83.9235   11.3054 C.ar    1  UNL1        0.3516
      9 O          63.1188   82.5616   10.6778 O.2     1  UNL1       -0.2444
     10 N          63.8295   84.2795   12.5984 N.ar    1  UNL1       -0.1735
     11 C          63.6187   85.7444   12.8424 C.ar    1  UNL1        0.1639
     12 N          64.0535   86.6490   13.9571 N.ar    1  UNL1       -0.3202
     13 C          63.6862   88.1031   13.9294 C.ar    1  UNL1        0.1761
     14 N          62.8842   88.6525   12.7871 N.ar    1  UNL1       -0.2240
     15 C          62.4494   87.7479   11.6724 C.ar    1  UNL1        0.1018
     16 C          62.8167   86.2938   11.7001 C.ar    1  UNL1        0.1157
     17 H          64.5799   86.2885   14.7068 H       1  UNL1        0.1689
     18 C          62.4789   85.2789    8.1549 C.3     1  UNL1        0.0266
     19 C          61.7570   85.2701    9.4698 C.3     1  UNL1        0.1108
     20 N          59.2412   89.9455    7.1032 N.am    1  UNL1       -0.2681
     21 C          59.9338   90.6213    5.9571 C.2     1  UNL1        0.3082
     22 O          61.4285   90.7477    5.9533 O.2     1  UNL1       -0.2522
     23 N          59.1317   91.1707    4.8148 N.am    1  UNL1       -0.2681
     24 H          58.2602   89.8625    7.1057 H       1  UNL1        0.1564
     25 H          58.1507   91.0877    4.8173 H       1  UNL1        0.1564
     26 C          59.8244   91.8465    3.6687 C.ar    1  UNL1        0.0517
     27 C          61.3137   92.0237    3.6916 C.ar    1  UNL1        0.0147
     28 C          62.0063   92.6996    2.5455 C.ar    1  UNL1        0.0014
     29 C          61.2096   93.1982    1.3764 C.ar    1  UNL1        0.0046
     30 C          59.7203   93.0209    1.3535 C.ar    1  UNL1        0.0546
     31 C          59.0277   92.3451    2.4996 C.ar    1  UNL1        0.0192
     32 C          58.9236   93.5195    0.1845 C.2     1  UNL1        0.2458
     33 O          58.9619   94.9730   -0.1840 O.2     1  UNL1       -0.2701
     34 N          58.0885   92.5646   -0.6160 N.am    1  UNL1       -0.3025
     35 H          58.0633   91.6106   -0.3741 H       1  UNL1        0.1497
     36 C          57.2918   93.0632   -1.7851 C.3     1  UNL1        0.0720
     37 C          57.8324   92.9200   -3.1769 C.3     1  UNL1        0.0213
     38 C          55.9544   93.7049   -1.5622 C.3     1  UNL1        0.0213
@<TRIPOS>BOND
     1    18    19    1
     2    19     7    1
     3     7     8   ar
     4     8     9    2
     5     8    10   ar
     6    10    11   ar
     7    11    12   ar
     8    12    13   ar
     9    13    14   ar
    10    14    15   ar
    11    15     1    1
    12     1     2   ar
    13     2     3   ar
    14     3     4   ar
    15     4    20    1
    16    20    21   am
    17    21    22    2
    18    21    23   am
    19    23    26    1
    20    26    27   ar
    21    27    28   ar
    22    28    29   ar
    23    29    30   ar
    24    30    32    1
    25    32    33    2
    26    32    34   am
    27    34    36    1
    28    36    37    1
    29    36    38    1
    30    30    31   ar
    31     4     5   ar
    32     5     6   ar
    33    15    16   ar
    34    16     7   ar
    35    16    11    1
    36     6     1   ar
    37    31    26   ar
    38    12    17    1
    39    20    24    1
    40    23    25    1
    41    34    35    1
