@<TRIPOS>MOLECULE
*****
 28 31 0 0 0
SMALL
GASTEIGER

@<TRIPOS>ATOM
      1 C          64.2862   89.3692   14.9927 C.ar    1  UNL1        0.0195
      2 C          63.3811   89.5434   16.1760 C.ar    1  UNL1        0.0047
      3 C          62.8233   88.3404   16.8772 C.ar    1  UNL1        0.0369
      4 C          63.1707   86.9632   16.3950 C.ar    1  UNL1        0.1386
      5 C          64.0759   86.7889   15.2117 C.ar    1  UNL1        0.0369
      6 C          64.6337   87.9920   14.5105 C.ar    1  UNL1        0.0047
      7 C          67.4225   93.5122   14.9689 C.3     1  UNL1        0.1571
      8 N          66.4121   92.6437   14.2796 N.ar    1  UNL1       -0.2146
      9 N          65.8543   91.4407   14.9808 N.ar    1  UNL1       -0.1668
     10 C          64.8440   90.5723   14.2916 C.ar    1  UNL1        0.1011
     11 C          64.3915   90.9068   12.9011 C.ar    1  UNL1        0.0240
     12 C          63.3812   90.0384   12.2119 C.ar    1  UNL1        0.0017
     13 C          62.9286   90.3730   10.8215 C.ar    1  UNL1        0.0001
     14 C          63.4864   91.5760   10.1203 C.ar    1  UNL1        0.0002
     15 C          64.4967   92.4444   10.8095 C.ar    1  UNL1        0.0048
     16 C          64.9492   92.1099   12.1999 C.ar    1  UNL1        0.0591
     17 C          65.9596   92.9783   12.8892 C.ar    1  UNL1        0.2764
     18 O          66.5174   94.1813   12.1881 O.2     1  UNL1       -0.2655
     19 O          62.6129   85.7602   17.0962 O.3     1  UNL1       -0.4754
     20 C          62.7964   84.3945   16.5035 C.3     1  UNL1        0.2068
     21 C          62.3061   84.1073   15.1153 C.3     1  UNL1        0.0646
     22 C          63.1213   83.2482   14.1947 C.3     1  UNL1        0.0759
     23 N          63.2197   83.5928   12.7382 N.3     1  UNL1       -0.2726
     24 C          64.0450   82.7409   11.8200 C.3     1  UNL1        0.0721
     25 C          64.1433   83.0855   10.3634 C.3     1  UNL1        0.0174
     26 C          63.4163   84.2820    9.8250 C.3     1  UNL1        0.0029
     27 C          62.5909   85.1339   10.7432 C.3     1  UNL1        0.0174
     28 C          62.4926   84.7893   12.1998 C.3     1  UNL1        0.0721
@<TRIPOS>BOND
     1     7     8    1
     2     8     9   ar
     3     9    10   ar
     4    10     1    1
     5     1     2   ar
     6     2     3   ar
     7     3     4   ar
     8     4    19    1
     9    19    20    1
    10    20    21    1
    11    21    22    1
    12    22    23    1
    13    23    24    1
    14    24    25    1
    15    25    26    1
    16    26    27    1
    17    27    28    1
    18     4     5   ar
    19     5     6   ar
    20    10    11   ar
    21    11    12   ar
    22    12    13   ar
    23    13    14   ar
    24    14    15   ar
    25    15    16   ar
    26    16    17   ar
    27    17    18    2
    28    17     8   ar
    29     6     1   ar
    30    16    11   ar
    31    28    23    1
@<TRIPOS>MOLECULE
*****
 28 31 0 0 0
SMALL
GASTEIGER

@<TRIPOS>ATOM
      1 C          62.1448   89.9990   11.7144 C.ar    1  UNL1        0.0195
      2 C          62.7207   89.4229   10.4549 C.ar    1  UNL1        0.0047
      3 C          61.8092   88.9147    9.3774 C.ar    1  UNL1        0.0369
      4 C          60.3219   88.9825    9.5595 C.ar    1  UNL1        0.1386
      5 C          59.7460   89.5586   10.8190 C.ar    1  UNL1        0.0369
      6 C          60.6574   90.0668   11.8965 C.ar    1  UNL1        0.0047
      7 C          63.5370   90.1769   16.7174 C.3     1  UNL1        0.1571
      8 N          63.7524   90.5962   15.2934 N.ar    1  UNL1       -0.2146
      9 N          62.8409   90.0879   14.2159 N.ar    1  UNL1       -0.1668
     10 C          63.0563   90.5072   12.7919 C.ar    1  UNL1        0.1011
     11 C          64.1831   91.4347   12.4453 C.ar    1  UNL1        0.0240
     12 C          64.3984   91.8539   11.0213 C.ar    1  UNL1        0.0017
     13 C          65.5252   92.7814   10.6748 C.ar    1  UNL1        0.0001
     14 C          66.4367   93.2896   11.7523 C.ar    1  UNL1        0.0002
     15 C          66.2213   92.8704   13.1763 C.ar    1  UNL1        0.0048
     16 C          65.0946   91.9429   13.5228 C.ar    1  UNL1        0.0591
     17 C          64.8792   91.5236   14.9468 C.ar    1  UNL1        0.2764
     18 O          65.7906   92.0319   16.0243 O.2     1  UNL1       -0.2655
     19 O          59.4105   88.4743    8.4820 O.3     1  UNL1       -0.4754
     20 C          59.7803   87.2461    7.7043 C.3     1  UNL1        0.2068
     21 C          60.3648   86.0589    8.4107 C.3     1  UNL1        0.0646
     22 C          61.8518   85.8649    8.4467 C.3     1  UNL1        0.0759
     23 N          62.4885   85.1622    9.6090 N.3     1  UNL1       -0.2726
     24 C          62.1233   85.5498   11.0113 C.3     1  UNL1        0.0721
     25 C          62.7600   84.8472   12.1736 C.3     1  UNL1        0.0174
     26 C          63.7618   83.7569   11.9336 C.3     1  UNL1        0.0029
     27 C          64.1271   83.3693   10.5313 C.3     1  UNL1        0.0174
     28 C          63.4904   84.0720    9.3690 C.3     1  UNL1        0.0721
@<TRIPOS>BOND
     1     7     8    1
     2     8     9   ar
     3     9    10   ar
     4    10     1    1
     5     1     2   ar
     6     2     3   ar
     7     3     4   ar
     8     4    19    1
     9    19    20    1
    10    20    21    1
    11    21    22    1
    12    22    23    1
    13    23    24    1
    14    24    25    1
    15    25    26    1
    16    26    27    1
    17    27    28    1
    18     4     5   ar
    19     5     6   ar
    20    10    11   ar
    21    11    12   ar
    22    12    13   ar
    23    13    14   ar
    24    14    15   ar
    25    15    16   ar
    26    16    17   ar
    27    17    18    2
    28    17     8   ar
    29     6     1   ar
    30    16    11   ar
    31    28    23    1
@<TRIPOS>MOLECULE
*****
 28 31 0 0 0
SMALL
GASTEIGER

@<TRIPOS>ATOM
      1 C          62.1260   89.6876   11.4155 C.ar    1  UNL1        0.0195
      2 C          62.4696   88.3780   10.7699 C.ar    1  UNL1        0.0047
      3 C          61.6396   87.8623    9.6318 C.ar    1  UNL1        0.0369
      4 C          60.4661   88.6561    9.1393 C.ar    1  UNL1        0.1386
      5 C          60.1225   89.9658    9.7849 C.ar    1  UNL1        0.0369
      6 C          60.9524   90.4816   10.9230 C.ar    1  UNL1        0.0047
      7 C          63.2833   89.7357   16.4809 C.3     1  UNL1        0.1571
      8 N          63.5347   90.2274   15.0862 N.ar    1  UNL1       -0.2146
      9 N          62.7047   89.7117   13.9481 N.ar    1  UNL1       -0.1668
     10 C          62.9560   90.2034   12.5535 C.ar    1  UNL1        0.1011
     11 C          64.0373   91.2109   12.2969 C.ar    1  UNL1        0.0240
     12 C          64.2886   91.7026   10.9022 C.ar    1  UNL1        0.0017
     13 C          65.3699   92.7100   10.6457 C.ar    1  UNL1        0.0001
     14 C          66.1998   93.2258   11.7837 C.ar    1  UNL1        0.0002
     15 C          65.9485   92.7341   13.1783 C.ar    1  UNL1        0.0048
     16 C          64.8673   91.7266   13.4349 C.ar    1  UNL1        0.0591
     17 C          64.6159   91.2349   14.8296 C.ar    1  UNL1        0.2764
     18 O          65.4459   91.7506   15.9677 O.2     1  UNL1       -0.2655
     19 O          59.6361   88.1404    8.0013 O.3     1  UNL1       -0.4754
     20 C          58.9621   89.1023    7.0684 C.3     1  UNL1        0.2068
     21 C          59.7403   89.7361    5.9537 C.3     1  UNL1        0.0646
     22 C          59.2612   91.0177    5.3387 C.3     1  UNL1        0.0759
     23 N          60.0892   91.7028    4.2922 N.3     1  UNL1       -0.2726
     24 C          59.4798   92.7727    3.4355 C.3     1  UNL1        0.0721
     25 C          60.3077   93.4578    2.3890 C.3     1  UNL1        0.0174
     26 C          61.7450   93.0731    2.1992 C.3     1  UNL1        0.0029
     27 C          62.3545   92.0032    3.0559 C.3     1  UNL1        0.0174
     28 C          61.5265   91.3180    4.1024 C.3     1  UNL1        0.0721
@<TRIPOS>BOND
     1     7     8    1
     2     8     9   ar
     3     9    10   ar
     4    10     1    1
     5     1     2   ar
     6     2     3   ar
     7     3     4   ar
     8     4    19    1
     9    19    20    1
    10    20    21    1
    11    21    22    1
    12    22    23    1
    13    23    24    1
    14    24    25    1
    15    25    26    1
    16    26    27    1
    17    27    28    1
    18     4     5   ar
    19     5     6   ar
    20    10    11   ar
    21    11    12   ar
    22    12    13   ar
    23    13    14   ar
    24    14    15   ar
    25    15    16   ar
    26    16    17   ar
    27    17    18    2
    28    17     8   ar
    29     6     1   ar
    30    16    11   ar
    31    28    23    1
@<TRIPOS>MOLECULE
*****
 28 31 0 0 0
SMALL
GASTEIGER

@<TRIPOS>ATOM
      1 C          63.7944   88.4870   13.5107 C.ar    1  UNL1        0.0195
      2 C          63.8068   89.6670   12.5848 C.ar    1  UNL1        0.0047
      3 C          64.1937   91.0213   13.1009 C.ar    1  UNL1        0.0369
      4 C          64.5682   91.1955   14.5428 C.ar    1  UNL1        0.1386
      5 C          64.5558   90.0155   15.4688 C.ar    1  UNL1        0.0369
      6 C          64.1689   88.6612   14.9528 C.ar    1  UNL1        0.0047
      7 C          63.7444   83.3175   14.0342 C.3     1  UNL1        0.1571
      8 N          63.3825   84.5481   13.2564 N.ar    1  UNL1       -0.2146
      9 N          63.7694   85.9023   13.7724 N.ar    1  UNL1       -0.1668
     10 C          63.4075   87.1328   12.9947 C.ar    1  UNL1        0.1011
     11 C          62.6587   87.0090   11.7008 C.ar    1  UNL1        0.0240
     12 C          62.2968   88.2395   10.9231 C.ar    1  UNL1        0.0017
     13 C          61.5480   88.1157    9.6293 C.ar    1  UNL1        0.0001
     14 C          61.1611   86.7615    9.1132 C.ar    1  UNL1        0.0002
     15 C          61.5230   85.5310    9.8910 C.ar    1  UNL1        0.0048
     16 C          62.2717   85.6548   11.1847 C.ar    1  UNL1        0.0591
     17 C          62.6337   84.4243   11.9626 C.ar    1  UNL1        0.2764
     18 O          62.2468   83.0700   11.4465 O.2     1  UNL1       -0.2655
     19 O          64.9551   92.5498   15.0589 O.3     1  UNL1       -0.4754
     20 C          66.3879   92.9908   15.0073 C.3     1  UNL1        0.2068
     21 C          66.8402   93.9478   13.9444 C.3     1  UNL1        0.0646
     22 C          66.1167   94.0074   12.6317 C.3     1  UNL1        0.0759
     23 N          66.8521   93.7202   11.3563 N.3     1  UNL1       -0.2726
     24 C          67.0286   94.8020   10.3324 C.3     1  UNL1        0.0721
     25 C          67.7640   94.5148    9.0570 C.3     1  UNL1        0.0174
     26 C          68.3230   93.1458    8.8055 C.3     1  UNL1        0.0029
     27 C          68.1465   92.0639    9.8295 C.3     1  UNL1        0.0174
     28 C          67.4111   92.3511   11.1049 C.3     1  UNL1        0.0721
@<TRIPOS>BOND
     1     7     8    1
     2     8     9   ar
     3     9    10   ar
     4    10     1    1
     5     1     2   ar
     6     2     3   ar
     7     3     4   ar
     8     4    19    1
     9    19    20    1
    10    20    21    1
    11    21    22    1
    12    22    23    1
    13    23    24    1
    14    24    25    1
    15    25    26    1
    16    26    27    1
    17    27    28    1
    18     4     5   ar
    19     5     6   ar
    20    10    11   ar
    21    11    12   ar
    22    12    13   ar
    23    13    14   ar
    24    14    15   ar
    25    15    16   ar
    26    16    17   ar
    27    17    18    2
    28    17     8   ar
    29     6     1   ar
    30    16    11   ar
    31    28    23    1
@<TRIPOS>MOLECULE
*****
 28 31 0 0 0
SMALL
GASTEIGER

@<TRIPOS>ATOM
      1 C          63.0600   89.7024   11.9017 C.ar    1  UNL1        0.0195
      2 C          63.5525   91.0211   11.3837 C.ar    1  UNL1        0.0047
      3 C          64.3235   91.9401   12.2842 C.ar    1  UNL1        0.0369
      4 C          64.6021   91.5403   13.7029 C.ar    1  UNL1        0.1386
      5 C          64.1096   90.2215   14.2210 C.ar    1  UNL1        0.0369
      6 C          63.3386   89.3026   13.3204 C.ar    1  UNL1        0.0047
      7 C          59.8278   88.9955    7.8951 C.3     1  UNL1        0.1571
      8 N          60.6729   88.4299    8.9979 N.ar    1  UNL1       -0.2146
      9 N          61.4439   89.3489    9.8984 N.ar    1  UNL1       -0.1668
     10 C          62.2890   88.7834   11.0011 C.ar    1  UNL1        0.1011
     11 C          62.3631   87.2989   11.2033 C.ar    1  UNL1        0.0240
     12 C          63.2082   86.7334   12.3060 C.ar    1  UNL1        0.0017
     13 C          63.2823   85.2490   12.5081 C.ar    1  UNL1        0.0001
     14 C          62.5113   84.3300   11.6076 C.ar    1  UNL1        0.0002
     15 C          61.6662   84.8955   10.5049 C.ar    1  UNL1        0.0048
     16 C          61.5921   86.3799   10.3027 C.ar    1  UNL1        0.0591
     17 C          60.7470   86.9455    9.2000 C.ar    1  UNL1        0.2764
     18 O          59.9760   86.0265    8.2994 O.2     1  UNL1       -0.2655
     19 O          65.3731   92.4593   14.6034 O.3     1  UNL1       -0.4754
     20 C          66.7742   92.1100   15.0095 C.3     1  UNL1        0.2068
     21 C          67.9124   92.3559   14.0640 C.3     1  UNL1        0.0646
     22 C          67.9196   91.7037   12.7132 C.3     1  UNL1        0.0759
     23 N          67.7626   92.5381   11.4767 N.3     1  UNL1       -0.2726
     24 C          68.4158   92.1111   10.1957 C.3     1  UNL1        0.0721
     25 C          68.2587   92.9455    8.9592 C.3     1  UNL1        0.0174
     26 C          67.4485   94.2071    9.0036 C.3     1  UNL1        0.0029
     27 C          66.7952   94.6342   10.2846 C.3     1  UNL1        0.0174
     28 C          66.9523   93.7997   11.5211 C.3     1  UNL1        0.0721
@<TRIPOS>BOND
     1     7     8    1
     2     8     9   ar
     3     9    10   ar
     4    10     1    1
     5     1     2   ar
     6     2     3   ar
     7     3     4   ar
     8     4    19    1
     9    19    20    1
    10    20    21    1
    11    21    22    1
    12    22    23    1
    13    23    24    1
    14    24    25    1
    15    25    26    1
    16    26    27    1
    17    27    28    1
    18     4     5   ar
    19     5     6   ar
    20    10    11   ar
    21    11    12   ar
    22    12    13   ar
    23    13    14   ar
    24    14    15   ar
    25    15    16   ar
    26    16    17   ar
    27    17    18    2
    28    17     8   ar
    29     6     1   ar
    30    16    11   ar
    31    28    23    1
@<TRIPOS>MOLECULE
*****
 28 31 0 0 0
SMALL
GASTEIGER

@<TRIPOS>ATOM
      1 C          61.6388   86.1847   10.4849 C.ar    1  UNL1        0.0195
      2 C          61.8659   85.6870    9.0882 C.ar    1  UNL1        0.0047
      3 C          61.1283   86.3105    7.9406 C.ar    1  UNL1        0.0369
      4 C          60.1635   87.4318    8.1896 C.ar    1  UNL1        0.1386
      5 C          59.9364   87.9296    9.5863 C.ar    1  UNL1        0.0369
      6 C          60.6740   87.3060   10.7339 C.ar    1  UNL1        0.0047
      7 C          63.1512   81.9546   13.0961 C.3     1  UNL1        0.1571
      8 N          63.1326   83.4462   12.9382 N.ar    1  UNL1       -0.2146
      9 N          62.3950   84.0697   11.7905 N.ar    1  UNL1       -0.1668
     10 C          62.3764   85.5612   11.6325 C.ar    1  UNL1        0.1011
     11 C          63.0954   86.4293   12.6223 C.ar    1  UNL1        0.0240
     12 C          63.0768   87.9208   12.4643 C.ar    1  UNL1        0.0017
     13 C          63.7958   88.7888   13.4540 C.ar    1  UNL1        0.0001
     14 C          64.5335   88.1652   14.6017 C.ar    1  UNL1        0.0002
     15 C          64.5521   86.6737   14.7597 C.ar    1  UNL1        0.0048
     16 C          63.8331   85.8057   13.7699 C.ar    1  UNL1        0.0591
     17 C          63.8517   84.3141   13.9279 C.ar    1  UNL1        0.2764
     18 O          64.5893   83.6906   15.0755 O.2     1  UNL1       -0.2655
     19 O          59.4259   88.0553    7.0419 O.3     1  UNL1       -0.4754
     20 C          59.4565   89.5426    6.8501 C.3     1  UNL1        0.2068
     21 C          58.8436   90.1536    5.6249 C.3     1  UNL1        0.0646
     22 C          59.1236   91.5866    5.2812 C.3     1  UNL1        0.0759
     23 N          60.1373   91.9209    4.2274 N.3     1  UNL1       -0.2726
     24 C          61.4977   91.2903    4.2684 C.3     1  UNL1        0.0721
     25 C          62.5114   91.6245    3.2145 C.3     1  UNL1        0.0174
     26 C          62.1648   92.5894    2.1197 C.3     1  UNL1        0.0029
     27 C          60.8044   93.2201    2.0786 C.3     1  UNL1        0.0174
     28 C          59.7907   92.8859    3.1325 C.3     1  UNL1        0.0721
@<TRIPOS>BOND
     1     7     8    1
     2     8     9   ar
     3     9    10   ar
     4    10     1    1
     5     1     2   ar
     6     2     3   ar
     7     3     4   ar
     8     4    19    1
     9    19    20    1
    10    20    21    1
    11    21    22    1
    12    22    23    1
    13    23    24    1
    14    24    25    1
    15    25    26    1
    16    26    27    1
    17    27    28    1
    18     4     5   ar
    19     5     6   ar
    20    10    11   ar
    21    11    12   ar
    22    12    13   ar
    23    13    14   ar
    24    14    15   ar
    25    15    16   ar
    26    16    17   ar
    27    17    18    2
    28    17     8   ar
    29     6     1   ar
    30    16    11   ar
    31    28    23    1
@<TRIPOS>MOLECULE
*****
 28 31 0 0 0
SMALL
GASTEIGER

@<TRIPOS>ATOM
      1 C          62.2424   85.0826   10.9812 C.ar    1  UNL1        0.0195
      2 C          62.7568   85.2346    9.5804 C.ar    1  UNL1        0.0047
      3 C          62.2827   86.3731    8.7266 C.ar    1  UNL1        0.0369
      4 C          61.2940   87.3596    9.2735 C.ar    1  UNL1        0.1386
      5 C          60.7795   87.2078   10.6744 C.ar    1  UNL1        0.0369
      6 C          61.2537   86.0693   11.5282 C.ar    1  UNL1        0.0047
      7 C          62.7397   79.9757   11.8010 C.3     1  UNL1        0.1571
      8 N          62.9652   81.3907   12.2449 N.ar    1  UNL1       -0.2146
      9 N          62.4911   82.5292   11.3911 N.ar    1  UNL1       -0.1668
     10 C          62.7166   83.9441   11.8350 C.ar    1  UNL1        0.1011
     11 C          63.4163   84.2206   13.1327 C.ar    1  UNL1        0.0240
     12 C          63.6417   85.6356   13.5766 C.ar    1  UNL1        0.0017
     13 C          64.3414   85.9120   14.8742 C.ar    1  UNL1        0.0001
     14 C          64.8156   84.7735   15.7280 C.ar    1  UNL1        0.0002
     15 C          64.5901   83.3586   15.2842 C.ar    1  UNL1        0.0048
     16 C          63.8904   83.0822   13.9865 C.ar    1  UNL1        0.0591
     17 C          63.6649   81.6672   13.5426 C.ar    1  UNL1        0.2764
     18 O          64.1391   80.5287   14.3964 O.2     1  UNL1       -0.2655
     19 O          60.8199   88.4981    8.4197 O.3     1  UNL1       -0.4754
     20 C          60.2941   89.7481    9.0609 C.3     1  UNL1        0.2068
     21 C          60.9832   90.3211   10.2637 C.3     1  UNL1        0.0646
     22 C          62.4550   90.6073   10.2193 C.3     1  UNL1        0.0759
     23 N          63.2644   90.5718   11.4818 N.3     1  UNL1       -0.2726
     24 C          63.1164   89.4235   12.4354 C.3     1  UNL1        0.0721
     25 C          63.9257   89.3879   13.6978 C.3     1  UNL1        0.0174
     26 C          64.8830   90.5006   14.0066 C.3     1  UNL1        0.0029
     27 C          65.0310   91.6490   13.0530 C.3     1  UNL1        0.0174
     28 C          64.2217   91.6845   11.7905 C.3     1  UNL1        0.0721
@<TRIPOS>BOND
     1     7     8    1
     2     8     9   ar
     3     9    10   ar
     4    10     1    1
     5     1     2   ar
     6     2     3   ar
     7     3     4   ar
     8     4    19    1
     9    19    20    1
    10    20    21    1
    11    21    22    1
    12    22    23    1
    13    23    24    1
    14    24    25    1
    15    25    26    1
    16    26    27    1
    17    27    28    1
    18     4     5   ar
    19     5     6   ar
    20    10    11   ar
    21    11    12   ar
    22    12    13   ar
    23    13    14   ar
    24    14    15   ar
    25    15    16   ar
    26    16    17   ar
    27    17    18    2
    28    17     8   ar
    29     6     1   ar
    30    16    11   ar
    31    28    23    1
@<TRIPOS>MOLECULE
*****
 28 31 0 0 0
SMALL
GASTEIGER

@<TRIPOS>ATOM
      1 C          61.5934   87.7420   10.5276 C.ar    1  UNL1        0.0195
      2 C          60.8469   86.6887    9.7640 C.ar    1  UNL1        0.0047
      3 C          59.9804   87.0767    8.6027 C.ar    1  UNL1        0.0369
      4 C          59.8603   88.5181    8.2051 C.ar    1  UNL1        0.1386
      5 C          60.6068   89.5714    8.9688 C.ar    1  UNL1        0.0369
      6 C          61.4734   89.1834   10.1301 C.ar    1  UNL1        0.0047
      7 C          64.4140   89.0782   14.6821 C.3     1  UNL1        0.1571
      8 N          63.8703   88.0220   13.7661 N.ar    1  UNL1       -0.2146
      9 N          63.0037   88.4100   12.6048 N.ar    1  UNL1       -0.1668
     10 C          62.4600   87.3539   11.6889 C.ar    1  UNL1        0.1011
     11 C          62.7829   85.9097   11.9341 C.ar    1  UNL1        0.0240
     12 C          62.2392   84.8536   11.0181 C.ar    1  UNL1        0.0017
     13 C          62.5621   83.4095   11.2634 C.ar    1  UNL1        0.0001
     14 C          63.4287   83.0215   12.4247 C.ar    1  UNL1        0.0002
     15 C          63.9723   84.0776   13.3406 C.ar    1  UNL1        0.0048
     16 C          63.6495   85.5217   13.0954 C.ar    1  UNL1        0.0591
     17 C          64.1931   86.5779   14.0114 C.ar    1  UNL1        0.2764
     18 O          65.0597   86.1898   15.1726 O.2     1  UNL1       -0.2655
     19 O          58.9937   88.9061    7.0439 O.3     1  UNL1       -0.4754
     20 C          59.5139   89.8530    6.0033 C.3     1  UNL1        0.2068
     21 C          58.5766   90.8020    5.3172 C.3     1  UNL1        0.0646
     22 C          59.0652   92.1490    4.8732 C.3     1  UNL1        0.0759
     23 N          60.0948   92.2528    3.7874 N.3     1  UNL1       -0.2726
     24 C          59.7343   92.8695    2.4684 C.3     1  UNL1        0.0721
     25 C          60.7639   92.9733    1.3826 C.3     1  UNL1        0.0174
     26 C          62.1541   92.4605    1.6157 C.3     1  UNL1        0.0029
     27 C          62.5147   91.8437    2.9347 C.3     1  UNL1        0.0174
     28 C          61.4850   91.7399    4.0205 C.3     1  UNL1        0.0721
@<TRIPOS>BOND
     1     7     8    1
     2     8     9   ar
     3     9    10   ar
     4    10     1    1
     5     1     2   ar
     6     2     3   ar
     7     3     4   ar
     8     4    19    1
     9    19    20    1
    10    20    21    1
    11    21    22    1
    12    22    23    1
    13    23    24    1
    14    24    25    1
    15    25    26    1
    16    26    27    1
    17    27    28    1
    18     4     5   ar
    19     5     6   ar
    20    10    11   ar
    21    11    12   ar
    22    12    13   ar
    23    13    14   ar
    24    14    15   ar
    25    15    16   ar
    26    16    17   ar
    27    17    18    2
    28    17     8   ar
    29     6     1   ar
    30    16    11   ar
    31    28    23    1
@<TRIPOS>MOLECULE
*****
 28 31 0 0 0
SMALL
GASTEIGER

@<TRIPOS>ATOM
      1 C          63.5933   89.2229   13.3681 C.ar    1  UNL1        0.0195
      2 C          64.1104   90.4891   12.7524 C.ar    1  UNL1        0.0047
      3 C          64.6208   91.5949   13.6280 C.ar    1  UNL1        0.0369
      4 C          64.6141   91.4345   15.1193 C.ar    1  UNL1        0.1386
      5 C          64.0969   90.1682   15.7352 C.ar    1  UNL1        0.0369
      6 C          63.5866   89.0624   14.8596 C.ar    1  UNL1        0.0047
      7 C          63.2866   84.1624   12.2289 C.3     1  UNL1        0.1571
      8 N          62.9296   85.5868   11.9229 N.ar    1  UNL1       -0.2146
      9 N          63.4399   86.6927   12.7985 N.ar    1  UNL1       -0.1668
     10 C          63.0830   88.1170   12.4925 C.ar    1  UNL1        0.1011
     11 C          62.2156   88.4357   11.3109 C.ar    1  UNL1        0.0240
     12 C          61.8586   89.8600   11.0049 C.ar    1  UNL1        0.0017
     13 C          60.9912   90.1786    9.8233 C.ar    1  UNL1        0.0001
     14 C          60.4809   89.0728    8.9477 C.ar    1  UNL1        0.0002
     15 C          60.8378   87.6484    9.2537 C.ar    1  UNL1        0.0048
     16 C          61.7052   87.3298   10.4353 C.ar    1  UNL1        0.0591
     17 C          62.0622   85.9054   10.7413 C.ar    1  UNL1        0.2764
     18 O          61.5518   84.7996    9.8657 O.2     1  UNL1       -0.2655
     19 O          65.1245   92.5403   15.9949 O.3     1  UNL1       -0.4754
     20 C          66.5881   92.6331   16.3094 C.3     1  UNL1        0.2068
     21 C          67.5290   93.2588   15.3229 C.3     1  UNL1        0.0646
     22 C          67.9944   92.4769   14.1304 C.3     1  UNL1        0.0759
     23 N          67.4866   92.8229   12.7620 N.3     1  UNL1       -0.2726
     24 C          67.9529   92.0418   11.5693 C.3     1  UNL1        0.0721
     25 C          67.4452   92.3878   10.2009 C.3     1  UNL1        0.0174
     26 C          66.4711   93.5149   10.0252 C.3     1  UNL1        0.0029
     27 C          66.0048   94.2960   11.2179 C.3     1  UNL1        0.0174
     28 C          66.5125   93.9500   12.5863 C.3     1  UNL1        0.0721
@<TRIPOS>BOND
     1     7     8    1
     2     8     9   ar
     3     9    10   ar
     4    10     1    1
     5     1     2   ar
     6     2     3   ar
     7     3     4   ar
     8     4    19    1
     9    19    20    1
    10    20    21    1
    11    21    22    1
    12    22    23    1
    13    23    24    1
    14    24    25    1
    15    25    26    1
    16    26    27    1
    17    27    28    1
    18     4     5   ar
    19     5     6   ar
    20    10    11   ar
    21    11    12   ar
    22    12    13   ar
    23    13    14   ar
    24    14    15   ar
    25    15    16   ar
    26    16    17   ar
    27    17    18    2
    28    17     8   ar
    29     6     1   ar
    30    16    11   ar
    31    28    23    1
