@<TRIPOS>MOLECULE
*****
 41 44 0 0 0
SMALL
GASTEIGER

@<TRIPOS>ATOM
      1 C          62.7128   89.9466   11.0290 C.ar    1  UNL1        0.0886
      2 C          61.5433   90.5031   10.2725 C.ar    1  UNL1        0.0191
      3 C          60.4716   89.5838    9.7660 C.ar    1  UNL1       -0.0015
      4 C          60.5696   88.1080   10.0160 C.ar    1  UNL1       -0.0083
      5 C          59.4980   87.1887    9.5095 C.3     1  UNL1        0.0323
      6 C          61.7393   87.5516   10.7726 C.ar    1  UNL1        0.0480
      7 C          62.8108   88.4709   11.2791 C.ar    1  UNL1        0.0337
      8 N          65.4488   91.5682   13.4029 N.ar    1  UNL1       -0.2434
      9 C          65.9277   92.7044   12.5487 C.ar    1  UNL1        0.2855
     10 O          66.9994   93.6237   13.0552 O.2     1  UNL1       -0.2651
     11 C          65.3351   92.9213   11.1879 C.ar    1  UNL1        0.1813
     12 N          64.2635   92.0021   10.6814 N.ar    1  UNL1       -0.1547
     13 N          63.7845   90.8659   11.5356 N.ar    1  UNL1       -0.1797
     14 C          64.3772   90.6490   12.8964 C.ar    1  UNL1        0.3536
     15 O          63.8981   89.5128   13.7506 O.2     1  UNL1       -0.2443
     16 C          66.0414   91.3513   14.7637 C.3     1  UNL1        0.1453
     17 C          65.8644   92.3884   15.8328 C.3     1  UNL1        0.1627
     18 O          66.8573   93.5048   15.9666 O.3     1  UNL1       -0.3799
     19 H          66.5972   94.0826   16.7011 H       1  UNL1        0.2105
     20 C          64.6944   92.3091   16.7682 C.3     1  UNL1        0.1733
     21 C          63.2666   90.1389   16.7319 C.3     1  UNL1        0.1742
     22 O          63.4513   91.5787   16.3543 O.3     1  UNL1       -0.3485
     23 N          61.8373   86.0758   11.0226 N.am    1  UNL1       -0.2808
     24 C          62.6990   85.5594   12.1364 C.2     1  UNL1        0.2471
     25 O          63.4629   86.5188   13.0003 O.2     1  UNL1       -0.2701
     26 H          61.3360   85.4461   10.4556 H       1  UNL1        0.1552
     27 C          62.7970   84.0837   12.3865 C.2     1  UNL1        0.0505
     28 C          62.8118   83.1266   11.2315 C.2     1  UNL1        0.0680
     29 N          62.9098   81.6509   11.4816 N.am    1  UNL1       -0.2558
     30 C          62.9246   80.6939   10.3266 C.3     1  UNL1        0.1200
     31 C          62.9930   81.1321   12.8865 C.2     1  UNL1        0.2301
     32 O          63.0911   79.6564   13.1365 O.2     1  UNL1       -0.2745
     33 C          62.9783   82.0891   14.0415 C.3     1  UNL1        0.0945
     34 C          62.8803   83.5649   13.7915 C.3     1  UNL1        0.0594
     35 C          62.8655   84.5219   14.9464 C.ar    1  UNL1       -0.0176
     36 C          64.1513   85.1022   15.4560 C.ar    1  UNL1       -0.0016
     37 C          64.1366   86.0593   16.6110 C.ar    1  UNL1        0.0293
     38 C          62.8359   86.4360   17.2563 C.ar    1  UNL1        0.1401
     39 F          62.8211   87.3930   18.4112 F       1  UNL1       -0.2042
     40 C          61.5500   85.8556   16.7466 C.ar    1  UNL1        0.0293
     41 C          61.5648   84.8986   15.5917 C.ar    1  UNL1       -0.0016
@<TRIPOS>BOND
     1    21    22    1
     2    22    20    1
     3    20    17    1
     4    17    18    1
     5    17    16    1
     6    16     8    1
     7     8     9   ar
     8     9    10    2
     9     9    11   ar
    10    11    12   ar
    11    12    13   ar
    12    13     1    1
    13     1     2   ar
    14     2     3   ar
    15     3     4   ar
    16     4     5    1
    17     4     6   ar
    18     6    23    1
    19    23    24   am
    20    24    25    2
    21    24    27    1
    22    27    28    2
    23    28    29    1
    24    29    30    1
    25    29    31   am
    26    31    32    2
    27    31    33    1
    28    33    34    1
    29    34    35    1
    30    35    36   ar
    31    36    37   ar
    32    37    38   ar
    33    38    39    1
    34    38    40   ar
    35    40    41   ar
    36     6     7   ar
    37    13    14   ar
    38    14    15    2
    39    14     8   ar
    40     7     1   ar
    41    34    27    1
    42    41    35   ar
    43    18    19    1
    44    23    26    1
@<TRIPOS>MOLECULE
*****
 41 44 0 0 0
SMALL
GASTEIGER

@<TRIPOS>ATOM
      1 C          63.1389   89.4155   11.7631 C.ar    1  UNL1        0.0886
      2 C          62.3656   89.7811   10.5309 C.ar    1  UNL1        0.0191
      3 C          61.5299   88.7474    9.8356 C.ar    1  UNL1       -0.0015
      4 C          61.4677   87.3482   10.3726 C.ar    1  UNL1       -0.0083
      5 C          60.6321   86.3146    9.6774 C.3     1  UNL1        0.0323
      6 C          62.2410   86.9826   11.6048 C.ar    1  UNL1        0.0480
      7 C          63.0766   88.0162   12.3001 C.ar    1  UNL1        0.0337
      8 N          65.3355   92.6610   12.3885 N.ar    1  UNL1       -0.2434
      9 C          65.6457   92.5163   13.8489 C.ar    1  UNL1        0.2855
     10 O          66.4814   93.5500   14.5442 O.2     1  UNL1       -0.2651
     11 C          65.1203   91.3380   14.6140 C.ar    1  UNL1        0.1813
     12 N          64.2847   90.3044   13.9188 N.ar    1  UNL1       -0.1547
     13 N          63.9745   90.4491   12.4584 N.ar    1  UNL1       -0.1797
     14 C          64.4999   91.6274   11.6933 C.ar    1  UNL1        0.3536
     15 O          64.1897   91.7721   10.2328 O.2     1  UNL1       -0.2443
     16 C          65.8609   93.8394   11.6233 C.3     1  UNL1        0.1453
     17 C          66.9095   93.6420   10.5691 C.3     1  UNL1        0.1627
     18 O          67.9866   92.6165   10.7653 O.3     1  UNL1       -0.3799
     19 H          68.5778   92.6174    9.9963 H       1  UNL1        0.2105
     20 C          66.8812   94.4701    9.3187 C.3     1  UNL1        0.1733
     21 C          67.2523   96.7693    8.1671 C.3     1  UNL1        0.1742
     22 O          67.5199   95.8273    9.3034 O.3     1  UNL1       -0.3485
     23 N          62.1787   85.5834   12.1418 N.am    1  UNL1       -0.2808
     24 C          63.0261   84.5071   11.5307 C.2     1  UNL1        0.2471
     25 O          63.9359   84.8301   10.3825 O.2     1  UNL1       -0.2701
     26 H          61.5816   85.3714   12.8953 H       1  UNL1        0.1552
     27 C          62.9639   83.1079   12.0676 C.2     1  UNL1        0.0505
     28 C          62.8575   81.9466   11.1242 C.2     1  UNL1        0.0680
     29 N          62.7952   80.5474   11.6612 N.am    1  UNL1       -0.2558
     30 C          62.6889   79.3861   10.7177 C.3     1  UNL1        0.1200
     31 C          62.8393   80.3095   13.1415 C.2     1  UNL1        0.2301
     32 O          62.7770   78.9103   13.6784 O.2     1  UNL1       -0.2745
     33 C          62.9456   81.4708   14.0850 C.3     1  UNL1        0.0945
     34 C          63.0079   82.8700   13.5480 C.3     1  UNL1        0.0594
     35 C          63.1142   84.0314   14.4914 C.ar    1  UNL1       -0.0176
     36 C          62.0203   84.2943   15.4834 C.ar    1  UNL1       -0.0016
     37 C          62.1266   85.4557   16.4269 C.ar    1  UNL1        0.0293
     38 C          63.3268   86.3540   16.3782 C.ar    1  UNL1        0.1401
     39 F          63.4332   87.5153   17.3216 F       1  UNL1       -0.2042
     40 C          64.4208   86.0910   15.3862 C.ar    1  UNL1        0.0293
     41 C          64.3145   84.9297   14.4428 C.ar    1  UNL1       -0.0016
@<TRIPOS>BOND
     1    21    22    1
     2    22    20    1
     3    20    17    1
     4    17    18    1
     5    17    16    1
     6    16     8    1
     7     8     9   ar
     8     9    10    2
     9     9    11   ar
    10    11    12   ar
    11    12    13   ar
    12    13     1    1
    13     1     2   ar
    14     2     3   ar
    15     3     4   ar
    16     4     5    1
    17     4     6   ar
    18     6    23    1
    19    23    24   am
    20    24    25    2
    21    24    27    1
    22    27    28    2
    23    28    29    1
    24    29    30    1
    25    29    31   am
    26    31    32    2
    27    31    33    1
    28    33    34    1
    29    34    35    1
    30    35    36   ar
    31    36    37   ar
    32    37    38   ar
    33    38    39    1
    34    38    40   ar
    35    40    41   ar
    36     6     7   ar
    37    13    14   ar
    38    14    15    2
    39    14     8   ar
    40     7     1   ar
    41    34    27    1
    42    41    35   ar
    43    18    19    1
    44    23    26    1
@<TRIPOS>MOLECULE
*****
 41 44 0 0 0
SMALL
GASTEIGER

@<TRIPOS>ATOM
      1 C          62.9550   85.1949   15.3893 C.ar    1  UNL1        0.0886
      2 C          62.4803   85.4516   16.7889 C.ar    1  UNL1        0.0191
      3 C          62.6282   86.8169   17.3925 C.ar    1  UNL1       -0.0015
      4 C          63.2507   87.9254   16.5964 C.ar    1  UNL1       -0.0083
      5 C          63.3985   89.2906   17.1999 C.3     1  UNL1        0.0323
      6 C          63.7253   87.6686   15.1968 C.ar    1  UNL1        0.0480
      7 C          63.5775   86.3034   14.5933 C.ar    1  UNL1        0.0337
      8 N          63.5494   82.0445   13.0501 N.ar    1  UNL1       -0.2434
      9 C          62.5116   81.0992   13.5786 C.ar    1  UNL1        0.2855
     10 O          62.3638   79.7339   12.9750 O.2     1  UNL1       -0.2651
     11 C          61.6215   81.5191   14.7106 C.ar    1  UNL1        0.1813
     12 N          61.7693   82.8843   15.3142 N.ar    1  UNL1       -0.1547
     13 N          62.8072   83.8296   14.7858 N.ar    1  UNL1       -0.1797
     14 C          63.6972   83.4097   13.6537 C.ar    1  UNL1        0.3536
     15 O          64.7351   84.3550   13.1253 O.2     1  UNL1       -0.2443
     16 C          64.4394   81.6246   11.9181 C.3     1  UNL1        0.1453
     17 C          63.9583   81.7424   10.5023 C.3     1  UNL1        0.1627
     18 O          63.1533   80.6351    9.8891 O.3     1  UNL1       -0.3799
     19 H          62.9244   80.8692    8.9760 H       1  UNL1        0.2105
     20 C          64.2821   82.9675    9.6996 C.3     1  UNL1        0.1733
     21 C          63.1256   84.9966    8.5615 C.3     1  UNL1        0.1742
     22 O          63.3989   84.1768    9.7875 O.3     1  UNL1       -0.3485
     23 N          64.3478   88.7771   14.4008 N.am    1  UNL1       -0.2808
     24 C          63.4805   89.8249   13.7683 C.2     1  UNL1        0.2471
     25 O          61.9907   89.7641   13.9319 O.2     1  UNL1       -0.2701
     26 H          65.3256   88.8170   14.2934 H       1  UNL1        0.1552
     27 C          64.1030   90.9334   12.9723 C.2     1  UNL1        0.0505
     28 C          65.1575   91.8014   13.5924 C.2     1  UNL1        0.0680
     29 N          65.7800   92.9099   12.7963 N.am    1  UNL1       -0.2558
     30 C          66.8345   93.7780   13.4165 C.3     1  UNL1        0.1200
     31 C          65.3480   93.1504   11.3802 C.2     1  UNL1        0.2301
     32 O          65.9705   94.2589   10.5841 O.2     1  UNL1       -0.2745
     33 C          64.2935   92.2823   10.7600 C.3     1  UNL1        0.0945
     34 C          63.6710   91.1738   11.5560 C.3     1  UNL1        0.0594
     35 C          62.6166   90.3058   10.9359 C.ar    1  UNL1       -0.0176
     36 C          61.2067   90.8047   10.8209 C.ar    1  UNL1       -0.0016
     37 C          60.1522   89.9366   10.2008 C.ar    1  UNL1        0.0293
     38 C          60.5076   88.5697    9.6956 C.ar    1  UNL1        0.1401
     39 F          59.4532   87.7016    9.0755 F       1  UNL1       -0.2042
     40 C          61.9176   88.0708    9.8107 C.ar    1  UNL1        0.0293
     41 C          62.9720   88.9388   10.4308 C.ar    1  UNL1       -0.0016
@<TRIPOS>BOND
     1    21    22    1
     2    22    20    1
     3    20    17    1
     4    17    18    1
     5    17    16    1
     6    16     8    1
     7     8     9   ar
     8     9    10    2
     9     9    11   ar
    10    11    12   ar
    11    12    13   ar
    12    13     1    1
    13     1     2   ar
    14     2     3   ar
    15     3     4   ar
    16     4     5    1
    17     4     6   ar
    18     6    23    1
    19    23    24   am
    20    24    25    2
    21    24    27    1
    22    27    28    2
    23    28    29    1
    24    29    30    1
    25    29    31   am
    26    31    32    2
    27    31    33    1
    28    33    34    1
    29    34    35    1
    30    35    36   ar
    31    36    37   ar
    32    37    38   ar
    33    38    39    1
    34    38    40   ar
    35    40    41   ar
    36     6     7   ar
    37    13    14   ar
    38    14    15    2
    39    14     8   ar
    40     7     1   ar
    41    34    27    1
    42    41    35   ar
    43    18    19    1
    44    23    26    1
@<TRIPOS>MOLECULE
*****
 41 44 0 0 0
SMALL
GASTEIGER

@<TRIPOS>ATOM
      1 C          64.3805   90.3510   15.1813 C.ar    1  UNL1        0.0886
      2 C          63.7751   90.5907   16.5326 C.ar    1  UNL1        0.0191
      3 C          63.1319   89.4588   17.2777 C.ar    1  UNL1       -0.0015
      4 C          63.0941   88.0873   16.6715 C.ar    1  UNL1       -0.0083
      5 C          62.4509   86.9555   17.4166 C.3     1  UNL1        0.0323
      6 C          63.6995   87.8476   15.3202 C.ar    1  UNL1        0.0480
      7 C          64.3427   88.9795   14.5751 C.ar    1  UNL1        0.0337
      8 N          65.4373   92.7684   12.2166 N.ar    1  UNL1       -0.2434
      9 C          66.3101   93.7464   12.9458 C.ar    1  UNL1        0.2855
     10 O          66.9533   94.8783   12.2006 O.2     1  UNL1       -0.2651
     11 C          66.5397   93.5926   14.4201 C.ar    1  UNL1        0.1813
     12 N          65.8965   92.4609   15.1653 N.ar    1  UNL1       -0.1547
     13 N          65.0237   91.4829   14.4361 N.ar    1  UNL1       -0.1797
     14 C          64.7941   91.6367   12.9618 C.ar    1  UNL1        0.3536
     15 O          63.9213   90.6586   12.2326 O.2     1  UNL1       -0.2443
     16 C          65.2077   92.9222   10.7423 C.3     1  UNL1        0.1453
     17 C          65.7229   94.1350   10.0255 C.3     1  UNL1        0.1627
     18 O          65.0599   95.4650   10.2298 O.3     1  UNL1       -0.3799
     19 H          65.5131   96.1373    9.6973 H       1  UNL1        0.2105
     20 C          66.9010   94.0178    9.1045 C.3     1  UNL1        0.1733
     21 C          68.9659   92.4415    9.1474 C.3     1  UNL1        0.1742
     22 O          68.2497   93.6583    9.6539 O.3     1  UNL1       -0.3485
     23 N          63.6617   86.4761   14.7140 N.am    1  UNL1       -0.2808
     24 C          63.4063   86.3121   13.2450 C.2     1  UNL1        0.2471
     25 O          63.1887   87.5198   12.3822 O.2     1  UNL1       -0.2701
     26 H          63.8045   85.6835   15.2803 H       1  UNL1        0.1552
     27 C          63.3685   84.9406   12.6388 C.2     1  UNL1        0.0505
     28 C          64.0510   83.7967   13.3285 C.2     1  UNL1        0.0680
     29 N          64.0132   82.4252   12.7223 N.am    1  UNL1       -0.2558
     30 C          64.6958   81.2813   13.4120 C.3     1  UNL1        0.1200
     31 C          63.2928   82.1976   11.4264 C.2     1  UNL1        0.2301
     32 O          63.2550   80.8260   10.8202 O.2     1  UNL1       -0.2745
     33 C          62.6103   83.3415   10.7367 C.3     1  UNL1        0.0945
     34 C          62.6481   84.7130   11.3429 C.3     1  UNL1        0.0594
     35 C          61.9656   85.8569   10.6533 C.ar    1  UNL1       -0.0176
     36 C          62.3675   86.2400    9.2599 C.ar    1  UNL1       -0.0016
     37 C          61.6849   87.3840    8.5701 C.ar    1  UNL1        0.0293
     38 C          60.6005   88.1447    9.2739 C.ar    1  UNL1        0.1401
     39 F          59.9180   89.2886    8.5843 F       1  UNL1       -0.2042
     40 C          60.1987   87.7615   10.6674 C.ar    1  UNL1        0.0293
     41 C          60.8812   86.6177   11.3571 C.ar    1  UNL1       -0.0016
@<TRIPOS>BOND
     1    21    22    1
     2    22    20    1
     3    20    17    1
     4    17    18    1
     5    17    16    1
     6    16     8    1
     7     8     9   ar
     8     9    10    2
     9     9    11   ar
    10    11    12   ar
    11    12    13   ar
    12    13     1    1
    13     1     2   ar
    14     2     3   ar
    15     3     4   ar
    16     4     5    1
    17     4     6   ar
    18     6    23    1
    19    23    24   am
    20    24    25    2
    21    24    27    1
    22    27    28    2
    23    28    29    1
    24    29    30    1
    25    29    31   am
    26    31    32    2
    27    31    33    1
    28    33    34    1
    29    34    35    1
    30    35    36   ar
    31    36    37   ar
    32    37    38   ar
    33    38    39    1
    34    38    40   ar
    35    40    41   ar
    36     6     7   ar
    37    13    14   ar
    38    14    15    2
    39    14     8   ar
    40     7     1   ar
    41    34    27    1
    42    41    35   ar
    43    18    19    1
    44    23    26    1
@<TRIPOS>MOLECULE
*****
 41 44 0 0 0
SMALL
GASTEIGER

@<TRIPOS>ATOM
      1 C          63.4227   85.4843   15.4761 C.ar    1  UNL1        0.0886
      2 C          62.8573   85.7963   16.8300 C.ar    1  UNL1        0.0191
      3 C          62.8337   87.2122   17.3249 C.ar    1  UNL1       -0.0015
      4 C          63.3756   88.3160   16.4659 C.ar    1  UNL1       -0.0083
      5 C          63.3521   89.7318   16.9607 C.3     1  UNL1        0.0323
      6 C          63.9411   88.0040   15.1120 C.ar    1  UNL1        0.0480
      7 C          63.9646   86.5882   14.6171 C.ar    1  UNL1        0.0337
      8 N          62.8980   82.3191   13.1403 N.ar    1  UNL1       -0.2434
      9 C          63.4933   81.2369   13.9914 C.ar    1  UNL1        0.2855
     10 O          63.5169   79.8211   13.4965 O.2     1  UNL1       -0.2651
     11 C          64.0652   81.5705   15.3374 C.ar    1  UNL1        0.1813
     12 N          64.0416   82.9863   15.8323 N.ar    1  UNL1       -0.1547
     13 N          63.4463   84.0685   14.9812 N.ar    1  UNL1       -0.1797
     14 C          62.8744   83.7349   13.6352 C.ar    1  UNL1        0.3536
     15 O          62.2790   84.8171   12.7841 O.2     1  UNL1       -0.2443
     16 C          62.3261   81.9855   11.7943 C.3     1  UNL1        0.1453
     17 C          63.2364   81.5885   10.6702 C.3     1  UNL1        0.1627
     18 O          64.6056   82.1922   10.5649 O.3     1  UNL1       -0.3799
     19 H          65.0596   81.8303    9.7879 H       1  UNL1        0.2105
     20 C          62.7775   80.5879    9.6513 C.3     1  UNL1        0.1733
     21 C          62.6596   78.1173   10.4464 C.3     1  UNL1        0.1742
     22 O          63.3403   79.1974    9.6592 O.3     1  UNL1       -0.3485
     23 N          64.4830   89.1078   14.2530 N.am    1  UNL1       -0.2808
     24 C          63.5449   89.9812   13.4738 C.2     1  UNL1        0.2471
     25 O          62.0648   89.7507   13.5536 O.2     1  UNL1       -0.2701
     26 H          65.4544   89.2591   14.2006 H       1  UNL1        0.1552
     27 C          64.0868   91.0850   12.6148 C.2     1  UNL1        0.0505
     28 C          65.1042   92.0370   13.1703 C.2     1  UNL1        0.0680
     29 N          65.6461   93.1408   12.3113 N.am    1  UNL1       -0.2558
     30 C          66.6635   94.0929   12.8668 C.3     1  UNL1        0.1200
     31 C          65.1707   93.2927   10.8968 C.2     1  UNL1        0.2301
     32 O          65.7126   94.3965   10.0378 O.2     1  UNL1       -0.2745
     33 C          64.1532   92.3406   10.3412 C.3     1  UNL1        0.0945
     34 C          63.6113   91.2368   11.2002 C.3     1  UNL1        0.0594
     35 C          62.5940   90.2848   10.6447 C.ar    1  UNL1       -0.0176
     36 C          63.0047   88.8997   10.2413 C.ar    1  UNL1       -0.0016
     37 C          61.9873   87.9476    9.6857 C.ar    1  UNL1        0.0293
     38 C          60.5592   88.3807    9.5337 C.ar    1  UNL1        0.1401
     39 F          59.5419   87.4287    8.9782 F       1  UNL1       -0.2042
     40 C          60.1486   89.7659    9.9372 C.ar    1  UNL1        0.0293
     41 C          61.1659   90.7179   10.4927 C.ar    1  UNL1       -0.0016
@<TRIPOS>BOND
     1    21    22    1
     2    22    20    1
     3    20    17    1
     4    17    18    1
     5    17    16    1
     6    16     8    1
     7     8     9   ar
     8     9    10    2
     9     9    11   ar
    10    11    12   ar
    11    12    13   ar
    12    13     1    1
    13     1     2   ar
    14     2     3   ar
    15     3     4   ar
    16     4     5    1
    17     4     6   ar
    18     6    23    1
    19    23    24   am
    20    24    25    2
    21    24    27    1
    22    27    28    2
    23    28    29    1
    24    29    30    1
    25    29    31   am
    26    31    32    2
    27    31    33    1
    28    33    34    1
    29    34    35    1
    30    35    36   ar
    31    36    37   ar
    32    37    38   ar
    33    38    39    1
    34    38    40   ar
    35    40    41   ar
    36     6     7   ar
    37    13    14   ar
    38    14    15    2
    39    14     8   ar
    40     7     1   ar
    41    34    27    1
    42    41    35   ar
    43    18    19    1
    44    23    26    1
@<TRIPOS>MOLECULE
*****
 41 44 0 0 0
SMALL
GASTEIGER

@<TRIPOS>ATOM
      1 C          61.8534   86.6281   10.9973 C.ar    1  UNL1        0.0886
      2 C          60.4445   86.8888   10.5535 C.ar    1  UNL1        0.0191
      3 C          59.8439   88.2525   10.7264 C.ar    1  UNL1       -0.0015
      4 C          60.6523   89.3553   11.3430 C.ar    1  UNL1       -0.0083
      5 C          60.0518   90.7189   11.5158 C.3     1  UNL1        0.0323
      6 C          62.0613   89.0945   11.7868 C.ar    1  UNL1        0.0480
      7 C          62.6618   87.7309   11.6139 C.ar    1  UNL1        0.0337
      8 N          63.3061   83.0347   11.8503 N.ar    1  UNL1       -0.2434
      9 C          63.6551   82.5372   10.4789 C.ar    1  UNL1        0.2855
     10 O          64.2557   81.1736   10.3061 O.2     1  UNL1       -0.2651
     11 C          63.4036   83.4034    9.2804 C.ar    1  UNL1        0.1813
     12 N          62.8031   84.7669    9.4531 N.ar    1  UNL1       -0.1547
     13 N          62.4540   85.2644   10.8245 N.ar    1  UNL1       -0.1797
     14 C          62.7055   84.3983   12.0231 C.ar    1  UNL1        0.3536
     15 O          62.3564   84.8958   13.3945 O.2     1  UNL1       -0.2443
     16 C          63.5576   82.1686   13.0489 C.3     1  UNL1        0.1453
     17 C          62.4582   81.9200   14.0385 C.3     1  UNL1        0.1627
     18 O          62.4431   82.6585   15.3441 O.3     1  UNL1       -0.3799
     19 H          61.6712   82.3827   15.8627 H       1  UNL1        0.2105
     20 C          61.3738   80.9329   13.7227 C.3     1  UNL1        0.1733
     21 C          59.0660   79.8734   14.2719 C.3     1  UNL1        0.1742
     22 O          60.1574   80.8499   14.5965 O.3     1  UNL1       -0.3485
     23 N          62.8697   90.1974   12.4034 N.am    1  UNL1       -0.2808
     24 C          63.9226   90.8971   11.5961 C.2     1  UNL1        0.2471
     25 O          64.1672   90.4938   10.1721 O.2     1  UNL1       -0.2701
     26 H          62.7091   90.4621   13.3379 H       1  UNL1        0.1552
     27 C          64.7310   91.9999   12.2127 C.2     1  UNL1        0.0505
     28 C          65.2221   93.1347   11.3636 C.2     1  UNL1        0.0680
     29 N          66.0304   94.2376   11.9802 N.am    1  UNL1       -0.2558
     30 C          66.5216   95.3725   11.1310 C.3     1  UNL1        0.1200
     31 C          66.3477   94.2057   13.4459 C.2     1  UNL1        0.2301
     32 O          67.1561   95.3085   14.0625 O.2     1  UNL1       -0.2745
     33 C          65.8566   93.0708   14.2950 C.3     1  UNL1        0.0945
     34 C          65.0482   91.9679   13.6784 C.3     1  UNL1        0.0594
     35 C          64.5571   90.8331   14.5275 C.ar    1  UNL1       -0.0176
     36 C          63.7482   91.1135   15.7592 C.ar    1  UNL1       -0.0016
     37 C          63.2570   89.9786   16.6083 C.ar    1  UNL1        0.0293
     38 C          63.5749   88.5635   16.2257 C.ar    1  UNL1        0.1401
     39 F          63.0837   87.4287   17.0748 F       1  UNL1       -0.2042
     40 C          64.3838   88.2832   14.9940 C.ar    1  UNL1        0.0293
     41 C          64.8749   89.4180   14.1449 C.ar    1  UNL1       -0.0016
@<TRIPOS>BOND
     1    21    22    1
     2    22    20    1
     3    20    17    1
     4    17    18    1
     5    17    16    1
     6    16     8    1
     7     8     9   ar
     8     9    10    2
     9     9    11   ar
    10    11    12   ar
    11    12    13   ar
    12    13     1    1
    13     1     2   ar
    14     2     3   ar
    15     3     4   ar
    16     4     5    1
    17     4     6   ar
    18     6    23    1
    19    23    24   am
    20    24    25    2
    21    24    27    1
    22    27    28    2
    23    28    29    1
    24    29    30    1
    25    29    31   am
    26    31    32    2
    27    31    33    1
    28    33    34    1
    29    34    35    1
    30    35    36   ar
    31    36    37   ar
    32    37    38   ar
    33    38    39    1
    34    38    40   ar
    35    40    41   ar
    36     6     7   ar
    37    13    14   ar
    38    14    15    2
    39    14     8   ar
    40     7     1   ar
    41    34    27    1
    42    41    35   ar
    43    18    19    1
    44    23    26    1
