@<TRIPOS>MOLECULE
*****
 48 53 0 0 0
SMALL
GASTEIGER

@<TRIPOS>ATOM
      1 N          64.2012   91.0472   13.1427 N.am    1  UNL1       -0.2721
      2 C          64.9059   90.2699   14.2148 C.2     1  UNL1        0.2492
      3 O          66.1705   90.8036   14.8198 O.2     1  UNL1       -0.2699
      4 C          64.3461   88.9590   14.6817 C.ar    1  UNL1        0.0567
      5 C          63.7091   88.8551   16.0358 C.ar    1  UNL1        0.0063
      6 C          63.1493   87.5442   16.5027 C.ar    1  UNL1        0.0225
      7 C          63.2264   86.3371   15.6155 C.ar    1  UNL1        0.1202
      8 N          62.7645   84.9224   15.8033 N.ar    1  UNL1       -0.1946
      9 C          63.1161   84.1519   14.5653 C.ar    1  UNL1        0.2924
     10 O          63.7952   85.0904   13.6124 O.2     1  UNL1       -0.4237
     11 C          63.8634   86.4410   14.2615 C.ar    1  UNL1        0.1662
     12 C          64.4232   87.7519   13.7946 C.ar    1  UNL1        0.0437
     13 N          62.8374   82.6980   14.3227 N.pl3   1  UNL1       -0.2636
     14 C          61.5152   82.0122   14.5000 C.3     1  UNL1        0.0951
     15 C          61.6928   80.5651   14.1470 C.3     1  UNL1        0.0233
     16 C          63.1246   80.3567   13.7516 C.3     1  UNL1        0.0233
     17 C          63.8321   81.6750   13.8602 C.3     1  UNL1        0.0951
     18 C          62.9367   90.5135   12.5377 C.3     1  UNL1        0.1246
     19 C          62.8295   90.3451   11.0509 C.3     1  UNL1        0.1484
     20 O          63.5420   91.2956   10.1352 O.3     1  UNL1       -0.3810
     21 H          64.0218   91.9538   10.6620 H       1  UNL1        0.2105
     22 C          62.0099   89.2260   10.4801 C.3     1  UNL1        0.1075
     23 O          59.2579   88.0662   10.1944 O.2     1  UNL1       -0.2264
     24 C          59.8602   88.8543    9.0691 C.2     1  UNL1        0.4020
     25 N          61.2362   89.4342    9.2120 N.am    1  UNL1       -0.2695
     26 H          61.6315   89.9515    8.4735 H       1  UNL1        0.1528
     27 O          59.0865   89.0625    7.8010 O.3     1  UNL1       -0.4291
     28 C          59.8092   89.3749    6.5242 C.3     1  UNL1        0.2447
     29 C          59.3330   90.4951    5.6476 C.ar    1  UNL1        0.0714
     30 C          57.9131   90.9552    5.4982 C.ar    1  UNL1        0.1053
     31 N          57.8955   92.0963    4.5249 N.ar    1  UNL1       -0.2350
     32 C          59.3046   92.3415    4.0727 C.ar    1  UNL1        0.1343
     33 S          60.1930   91.3519    4.7666 S.2     1  UNL1       -0.0652
     34 C          61.9639   87.8987   11.1774 C.3     1  UNL1        0.0485
     35 C          62.3820   86.6549   10.4507 C.ar    1  UNL1       -0.0204
     36 C          62.7278   86.7187    8.9925 C.ar    1  UNL1       -0.0042
     37 C          63.1460   85.4748    8.2658 C.ar    1  UNL1       -0.0003
     38 C          63.2183   84.1673    8.9974 C.ar    1  UNL1       -0.0000
     39 C          62.8725   84.1036   10.4556 C.ar    1  UNL1       -0.0003
     40 C          62.4543   85.3474   11.1822 C.ar    1  UNL1       -0.0042
     41 C          64.7611   92.3582   12.6758 C.3     1  UNL1        0.1111
     42 C          66.1898   92.4465   12.2276 C.3     1  UNL1        0.0940
     43 N          66.6023   93.4974   11.2399 N.3     1  UNL1       -0.2670
     44 C          67.3352   93.1063    9.9909 C.3     1  UNL1        0.1047
     45 C          67.7477   94.1571    9.0032 C.3     1  UNL1        0.1595
     46 O          67.4273   95.5990    9.2644 O.3     1  UNL1       -0.3508
     47 C          66.6944   95.9901   10.5133 C.3     1  UNL1        0.1595
     48 C          66.2819   94.9393   11.5011 C.3     1  UNL1        0.1047
@<TRIPOS>BOND
     1    23    24    2
     2    24    25   am
     3    25    22    1
     4    22    34    1
     5    34    35    1
     6    35    36   ar
     7    36    37   ar
     8    37    38   ar
     9    38    39   ar
    10    39    40   ar
    11    22    19    1
    12    19    20    1
    13    19    18    1
    14    18     1    1
    15     1    41    1
    16    41    42    1
    17    42    43    1
    18    43    44    1
    19    44    45    1
    20    45    46    1
    21    46    47    1
    22    47    48    1
    23     1     2   am
    24     2     3    2
    25     2     4    1
    26     4     5   ar
    27     5     6   ar
    28     6     7   ar
    29     7     8   ar
    30     8     9   ar
    31     9    13    1
    32    13    14    1
    33    14    15    1
    34    15    16    1
    35    16    17    1
    36     9    10   ar
    37    10    11   ar
    38    11    12   ar
    39    24    27    1
    40    27    28    1
    41    28    29    1
    42    29    30   ar
    43    30    31   ar
    44    31    32   ar
    45    32    33   ar
    46    40    35   ar
    47    48    43    1
    48    12     4   ar
    49    33    29   ar
    50    11     7   ar
    51    17    13    1
    52    25    26    1
    53    20    21    1
@<TRIPOS>MOLECULE
*****
 48 53 0 0 0
SMALL
GASTEIGER

@<TRIPOS>ATOM
      1 N          59.7742   88.7388    9.0013 N.am    1  UNL1       -0.2721
      2 C          59.2200   88.4721    7.6332 C.2     1  UNL1        0.2492
      3 O          58.6385   87.1281    7.3085 O.2     1  UNL1       -0.2699
      4 C          59.2474   89.5494    6.5898 C.ar    1  UNL1        0.0567
      5 C          57.9834   90.2669    6.2192 C.ar    1  UNL1        0.0063
      6 C          58.0108   91.3441    5.1758 C.ar    1  UNL1        0.0225
      7 C          59.3023   91.7039    4.5030 C.ar    1  UNL1        0.1202
      8 N          59.6359   92.7148    3.4461 N.ar    1  UNL1       -0.1946
      9 C          61.1061   92.6220    3.1635 C.ar    1  UNL1        0.2924
     10 O          61.6811   91.5538    4.0458 O.2     1  UNL1       -0.4237
     11 C          60.5663   90.9864    4.8736 C.ar    1  UNL1        0.1662
     12 C          60.5389   89.9092    5.9170 C.ar    1  UNL1        0.0437
     13 N          61.8676   93.4517    2.1726 N.pl3   1  UNL1       -0.2636
     14 C          63.2422   93.1583    1.6487 C.3     1  UNL1        0.0951
     15 C          63.6123   94.2457    0.6840 C.3     1  UNL1        0.0233
     16 C          62.4665   95.2111    0.6118 C.3     1  UNL1        0.0233
     17 C          61.3881   94.7203    1.5319 C.3     1  UNL1        0.0951
     18 C          60.3557   90.0828    9.3261 C.3     1  UNL1        0.1246
     19 C          60.9843   90.3240   10.6665 C.3     1  UNL1        0.1484
     20 O          60.1192   90.5420   11.8723 O.3     1  UNL1       -0.3810
     21 H          59.1856   90.4959   11.6131 H       1  UNL1        0.2105
     22 C          62.4781   90.3472   10.8011 C.3     1  UNL1        0.1075
     23 O          62.3887   89.7430   13.7383 O.2     1  UNL1       -0.2264
     24 C          63.1563   88.8475   12.8114 C.2     1  UNL1        0.4020
     25 N          63.2010   89.1496   11.3428 N.am    1  UNL1       -0.2695
     26 H          63.7048   88.5619   10.7345 H       1  UNL1        0.1528
     27 O          63.8791   87.6500   13.3531 O.3     1  UNL1       -0.4291
     28 C          64.4330   87.6754   14.7469 C.3     1  UNL1        0.2447
     29 C          63.6708   87.0346   15.8687 C.ar    1  UNL1        0.0714
     30 C          63.3776   85.5705   16.0121 C.ar    1  UNL1        0.1053
     31 N          62.5935   85.3763   17.2760 N.ar    1  UNL1       -0.2350
     32 C          62.4020   86.7205   17.9137 C.ar    1  UNL1        0.1343
     33 S          63.0678   87.7453   17.0440 S.2     1  UNL1       -0.0652
     34 C          63.2490   91.5678   10.3940 C.3     1  UNL1        0.0485
     35 C          64.5163   91.9281   11.1109 C.ar    1  UNL1       -0.0204
     36 C          65.7279   92.3428   10.3298 C.ar    1  UNL1       -0.0042
     37 C          66.9953   92.7031   11.0468 C.ar    1  UNL1       -0.0003
     38 C          67.0511   92.6486   12.5447 C.ar    1  UNL1       -0.0000
     39 C          65.8395   92.2339   13.3258 C.ar    1  UNL1       -0.0003
     40 C          64.5721   91.8737   12.6089 C.ar    1  UNL1       -0.0042
     41 C          59.7468   87.6615   10.0448 C.3     1  UNL1        0.1111
     42 C          61.0001   87.3049   10.7877 C.3     1  UNL1        0.0940
     43 N          61.8790   86.1972   10.2875 N.3     1  UNL1       -0.2670
     44 C          62.2681   86.1441    8.8397 C.3     1  UNL1        0.1047
     45 C          63.1470   85.0364    8.3394 C.3     1  UNL1        0.1595
     46 O          63.6370   83.9817    9.2868 O.3     1  UNL1       -0.3508
     47 C          63.2480   84.0347   10.7345 C.3     1  UNL1        0.1595
     48 C          62.3690   85.1425   11.2348 C.3     1  UNL1        0.1047
@<TRIPOS>BOND
     1    23    24    2
     2    24    25   am
     3    25    22    1
     4    22    34    1
     5    34    35    1
     6    35    36   ar
     7    36    37   ar
     8    37    38   ar
     9    38    39   ar
    10    39    40   ar
    11    22    19    1
    12    19    20    1
    13    19    18    1
    14    18     1    1
    15     1    41    1
    16    41    42    1
    17    42    43    1
    18    43    44    1
    19    44    45    1
    20    45    46    1
    21    46    47    1
    22    47    48    1
    23     1     2   am
    24     2     3    2
    25     2     4    1
    26     4     5   ar
    27     5     6   ar
    28     6     7   ar
    29     7     8   ar
    30     8     9   ar
    31     9    13    1
    32    13    14    1
    33    14    15    1
    34    15    16    1
    35    16    17    1
    36     9    10   ar
    37    10    11   ar
    38    11    12   ar
    39    24    27    1
    40    27    28    1
    41    28    29    1
    42    29    30   ar
    43    30    31   ar
    44    31    32   ar
    45    32    33   ar
    46    40    35   ar
    47    48    43    1
    48    12     4   ar
    49    33    29   ar
    50    11     7   ar
    51    17    13    1
    52    25    26    1
    53    20    21    1
@<TRIPOS>MOLECULE
*****
 48 53 0 0 0
SMALL
GASTEIGER

@<TRIPOS>ATOM
      1 N          61.5807   88.1296   11.1173 N.am    1  UNL1       -0.2721
      2 C          61.5586   89.5997   10.8204 C.2     1  UNL1        0.2492
      3 O          60.3532   90.2165   10.1751 O.2     1  UNL1       -0.2699
      4 C          62.7421   90.4531   11.1687 C.ar    1  UNL1        0.0567
      5 C          63.2806   91.4327   10.1686 C.ar    1  UNL1        0.0063
      6 C          64.4640   92.2860   10.5170 C.ar    1  UNL1        0.0225
      7 C          65.1089   92.1597   11.8654 C.ar    1  UNL1        0.1202
      8 N          66.2793   92.8617   12.4880 N.ar    1  UNL1       -0.1946
      9 C          66.4640   92.3158   13.8729 C.ar    1  UNL1        0.2924
     10 O          65.4078   91.2765   14.1061 O.2     1  UNL1       -0.4237
     11 C          64.5703   91.1800   12.8654 C.ar    1  UNL1        0.1662
     12 C          63.3869   90.3267   12.5171 C.ar    1  UNL1        0.0437
     13 N          67.5196   92.7355   14.8525 N.pl3   1  UNL1       -0.2636
     14 C          67.8927   94.1473   15.1956 C.3     1  UNL1        0.0951
     15 C          68.9911   94.1014   16.2162 C.3     1  UNL1        0.0233
     16 C          69.2967   92.6613   16.5038 C.3     1  UNL1        0.0233
     17 C          68.3871   91.8171   15.6610 C.3     1  UNL1        0.0951
     18 C          62.7862   87.5128   11.7626 C.3     1  UNL1        0.1246
     19 C          62.7555   86.0748   12.1887 C.3     1  UNL1        0.1484
     20 O          61.8340   85.1093   11.5044 O.3     1  UNL1       -0.3810
     21 H          61.3325   85.5735   10.8160 H       1  UNL1        0.2105
     22 C          63.6465   85.6026   13.2992 C.3     1  UNL1        0.1075
     23 O          61.6401   84.2901   15.1024 O.2     1  UNL1       -0.2264
     24 C          62.7523   83.4812   14.5034 C.2     1  UNL1        0.4020
     25 N          63.7555   84.1374   13.6018 N.am    1  UNL1       -0.2695
     26 H          64.4854   83.6065   13.2086 H       1  UNL1        0.1528
     27 O          62.8612   82.0161   14.8060 O.3     1  UNL1       -0.4291
     28 C          62.0475   81.0266   14.0257 C.3     1  UNL1        0.2447
     29 C          62.4662   80.6394   12.6383 C.ar    1  UNL1        0.0714
     30 C          62.5122   79.2447   12.0881 C.ar    1  UNL1        0.1053
     31 N          62.9867   79.3222   10.6673 N.ar    1  UNL1       -0.2350
     32 C          63.2339   80.7650   10.3393 C.ar    1  UNL1        0.1343
     33 S          62.9122   81.5790   11.5574 S.2     1  UNL1       -0.0652
     34 C          64.4285   86.5954   14.1071 C.3     1  UNL1        0.0485
     35 C          63.8830   87.0968   15.4113 C.ar    1  UNL1       -0.0204
     36 C          63.6651   88.5665   15.6178 C.ar    1  UNL1       -0.0042
     37 C          63.1196   89.0678   16.9221 C.ar    1  UNL1       -0.0003
     38 C          62.7920   88.0995   18.0199 C.ar    1  UNL1       -0.0000
     39 C          63.0098   86.6299   17.8134 C.ar    1  UNL1       -0.0003
     40 C          63.5553   86.1285   16.5091 C.ar    1  UNL1       -0.0042
     41 C          60.3972   87.2762   10.7690 C.3     1  UNL1        0.1111
     42 C          60.0122   87.0781    9.3329 C.3     1  UNL1        0.0940
     43 N          60.8557   86.2146    8.4425 N.3     1  UNL1       -0.2670
     44 C          62.3146   86.0311    8.7392 C.3     1  UNL1        0.1047
     45 C          63.1582   85.1676    7.8488 C.3     1  UNL1        0.1595
     46 O          62.5429   84.4877    6.6617 O.3     1  UNL1       -0.3508
     47 C          61.0841   84.6712    6.3650 C.3     1  UNL1        0.1595
     48 C          60.2404   85.5347    7.2554 C.3     1  UNL1        0.1047
@<TRIPOS>BOND
     1    23    24    2
     2    24    25   am
     3    25    22    1
     4    22    34    1
     5    34    35    1
     6    35    36   ar
     7    36    37   ar
     8    37    38   ar
     9    38    39   ar
    10    39    40   ar
    11    22    19    1
    12    19    20    1
    13    19    18    1
    14    18     1    1
    15     1    41    1
    16    41    42    1
    17    42    43    1
    18    43    44    1
    19    44    45    1
    20    45    46    1
    21    46    47    1
    22    47    48    1
    23     1     2   am
    24     2     3    2
    25     2     4    1
    26     4     5   ar
    27     5     6   ar
    28     6     7   ar
    29     7     8   ar
    30     8     9   ar
    31     9    13    1
    32    13    14    1
    33    14    15    1
    34    15    16    1
    35    16    17    1
    36     9    10   ar
    37    10    11   ar
    38    11    12   ar
    39    24    27    1
    40    27    28    1
    41    28    29    1
    42    29    30   ar
    43    30    31   ar
    44    31    32   ar
    45    32    33   ar
    46    40    35   ar
    47    48    43    1
    48    12     4   ar
    49    33    29   ar
    50    11     7   ar
    51    17    13    1
    52    25    26    1
    53    20    21    1
@<TRIPOS>MOLECULE
*****
 48 53 0 0 0
SMALL
GASTEIGER

@<TRIPOS>ATOM
      1 N          63.1708   87.1317   12.9742 N.am    1  UNL1       -0.2721
      2 C          62.2636   86.1507   12.2926 C.2     1  UNL1        0.2492
      3 O          61.9163   84.8565   12.9669 O.2     1  UNL1       -0.2699
      4 C          61.7036   86.4637   10.9367 C.ar    1  UNL1        0.0567
      5 C          61.6331   85.3928    9.8888 C.ar    1  UNL1        0.0063
      6 C          61.0732   85.7059    8.5330 C.ar    1  UNL1        0.0225
      7 C          60.5837   87.0899    8.2250 C.ar    1  UNL1        0.1202
      8 N          59.9857   87.6909    6.9874 N.ar    1  UNL1       -0.1946
      9 C          59.6867   89.1332    7.2705 C.ar    1  UNL1        0.2924
     10 O          60.0999   89.4237    8.6830 O.2     1  UNL1       -0.4237
     11 C          60.6543   88.1609    9.2728 C.ar    1  UNL1        0.1662
     12 C          61.2142   87.8478   10.6287 C.ar    1  UNL1        0.0437
     13 N          59.0808   90.1131    6.3099 N.pl3   1  UNL1       -0.2636
     14 C          59.8290   91.1248    5.4933 C.3     1  UNL1        0.0951
     15 C          58.8309   91.8903    4.6760 C.3     1  UNL1        0.0233
     16 C          57.4661   91.3517    4.9874 C.3     1  UNL1        0.0233
     17 C          57.6205   90.2532    5.9973 C.3     1  UNL1        0.0951
     18 C          63.5181   88.4258   12.2999 C.3     1  UNL1        0.1246
     19 C          63.2111   89.7295   12.9754 C.3     1  UNL1        0.1484
     20 O          61.7958   90.0739   13.3331 O.3     1  UNL1       -0.3810
     21 H          61.2085   89.3516   13.0606 H       1  UNL1        0.2105
     22 C          64.3197   90.6887   13.2933 C.3     1  UNL1        0.1075
     23 O          62.7424   91.3187   10.8204 O.2     1  UNL1       -0.2264
     24 C          64.1461   91.8276   10.9646 C.2     1  UNL1        0.4020
     25 N          64.9348   91.5126   12.2010 N.am    1  UNL1       -0.2695
     26 H          65.8560   91.8466   12.2957 H       1  UNL1        0.1528
     27 O          64.7611   92.6515    9.8724 O.3     1  UNL1       -0.4291
     28 C          66.1858   93.1065    9.9877 C.3     1  UNL1        0.2447
     29 C          66.5002   94.5700   10.0843 C.ar    1  UNL1        0.0714
     30 C          66.1568   95.4716   11.2329 C.ar    1  UNL1        0.1053
     31 N          66.6576   96.8477   10.9078 N.ar    1  UNL1       -0.2350
     32 C          67.3105   96.7965    9.5583 C.ar    1  UNL1        0.1343
     33 S          67.2133   95.3888    9.0494 S.2     1  UNL1       -0.0652
     34 C          64.8132   90.8240   14.7033 C.3     1  UNL1        0.0485
     35 C          66.1030   91.5375   14.9812 C.ar    1  UNL1       -0.0204
     36 C          66.2006   92.4869   16.1384 C.ar    1  UNL1       -0.0042
     37 C          67.4905   93.2005   16.4163 C.ar    1  UNL1       -0.0003
     38 C          68.6826   92.9647   15.5370 C.ar    1  UNL1       -0.0000
     39 C          68.5849   92.0153   14.3797 C.ar    1  UNL1       -0.0003
     40 C          67.2952   91.3018   14.1018 C.ar    1  UNL1       -0.0042
     41 C          63.7307   86.8186   14.3301 C.3     1  UNL1        0.1111
     42 C          64.7537   85.7328   14.4867 C.3     1  UNL1        0.0940
     43 N          64.4037   84.3167   14.1373 N.3     1  UNL1       -0.2670
     44 C          64.7921   83.7558   12.8013 C.3     1  UNL1        0.1047
     45 C          64.4421   82.3397   12.4519 C.3     1  UNL1        0.1595
     46 O          63.7037   81.4844   13.4384 O.3     1  UNL1       -0.3508
     47 C          63.3153   82.0452   14.7743 C.3     1  UNL1        0.1595
     48 C          63.6653   83.4613   15.1237 C.3     1  UNL1        0.1047
@<TRIPOS>BOND
     1    23    24    2
     2    24    25   am
     3    25    22    1
     4    22    34    1
     5    34    35    1
     6    35    36   ar
     7    36    37   ar
     8    37    38   ar
     9    38    39   ar
    10    39    40   ar
    11    22    19    1
    12    19    20    1
    13    19    18    1
    14    18     1    1
    15     1    41    1
    16    41    42    1
    17    42    43    1
    18    43    44    1
    19    44    45    1
    20    45    46    1
    21    46    47    1
    22    47    48    1
    23     1     2   am
    24     2     3    2
    25     2     4    1
    26     4     5   ar
    27     5     6   ar
    28     6     7   ar
    29     7     8   ar
    30     8     9   ar
    31     9    13    1
    32    13    14    1
    33    14    15    1
    34    15    16    1
    35    16    17    1
    36     9    10   ar
    37    10    11   ar
    38    11    12   ar
    39    24    27    1
    40    27    28    1
    41    28    29    1
    42    29    30   ar
    43    30    31   ar
    44    31    32   ar
    45    32    33   ar
    46    40    35   ar
    47    48    43    1
    48    12     4   ar
    49    33    29   ar
    50    11     7   ar
    51    17    13    1
    52    25    26    1
    53    20    21    1
@<TRIPOS>MOLECULE
*****
 48 53 0 0 0
SMALL
GASTEIGER

@<TRIPOS>ATOM
      1 N          60.0315   89.2158    8.0807 N.am    1  UNL1       -0.2721
      2 C          59.8013   87.7382    7.9647 C.2     1  UNL1        0.2492
      3 O          58.6182   87.2211    7.2013 O.2     1  UNL1       -0.2699
      4 C          60.7542   86.7776    8.6123 C.ar    1  UNL1        0.0567
      5 C          61.6786   85.9531    7.7662 C.ar    1  UNL1        0.0063
      6 C          62.6315   84.9926    8.4138 C.ar    1  UNL1        0.0225
      7 C          62.6599   84.8564    9.9073 C.ar    1  UNL1        0.1202
      8 N          63.4845   83.9994   10.8215 N.ar    1  UNL1       -0.1946
      9 C          63.0697   84.2942   12.2325 C.ar    1  UNL1        0.2924
     10 O          61.9888   85.3334   12.1904 O.2     1  UNL1       -0.4237
     11 C          61.7356   85.6809   10.7533 C.ar    1  UNL1        0.1662
     12 C          60.7827   86.6414   10.1058 C.ar    1  UNL1        0.0437
     13 N          63.6363   83.6610   13.4687 N.pl3   1  UNL1       -0.2636
     14 C          64.9736   83.9601   14.0788 C.3     1  UNL1        0.0951
     15 C          65.1288   83.1015   15.2990 C.3     1  UNL1        0.0233
     16 C          63.8874   82.2719   15.4429 C.3     1  UNL1        0.0233
     17 C          62.9650   82.6177   14.3117 C.3     1  UNL1        0.0951
     18 C          61.2145   89.7330    8.8442 C.3     1  UNL1        0.1246
     19 C          61.0557   90.1630   10.2725 C.3     1  UNL1        0.1484
     20 O          59.7183   90.0575   10.9433 O.3     1  UNL1       -0.3810
     21 H          59.0709   89.6948   10.3185 H       1  UNL1        0.2105
     22 C          62.2345   90.6987   11.0299 C.3     1  UNL1        0.1075
     23 O          63.3366   88.5168   12.7691 O.2     1  UNL1       -0.2264
     24 C          62.7225   89.7350   13.3928 C.2     1  UNL1        0.4020
     25 N          62.1715   90.8259   12.5233 N.am    1  UNL1       -0.2695
     26 H          61.7685   91.6254   12.9326 H       1  UNL1        0.1528
     27 O          62.6596   89.8622   14.8861 O.3     1  UNL1       -0.4291
     28 C          63.6643   89.1500   15.7425 C.3     1  UNL1        0.2447
     29 C          63.2901   87.8714   16.4318 C.ar    1  UNL1        0.0714
     30 C          62.6217   87.7538   17.7695 C.ar    1  UNL1        0.1053
     31 N          62.4372   86.2956   18.0689 N.ar    1  UNL1       -0.2350
     32 C          62.9916   85.5120   16.9162 C.ar    1  UNL1        0.1343
     33 S          63.5187   86.4859   15.9044 S.2     1  UNL1       -0.0652
     34 C          63.4761   91.1070   10.2941 C.3     1  UNL1        0.0485
     35 C          64.4660   92.0264   10.9460 C.ar    1  UNL1       -0.0204
     36 C          64.9486   91.7437   12.3378 C.ar    1  UNL1       -0.0042
     37 C          65.9385   92.6631   12.9896 C.ar    1  UNL1       -0.0003
     38 C          66.4458   93.8652   12.2496 C.ar    1  UNL1       -0.0000
     39 C          65.9632   94.1479   10.8578 C.ar    1  UNL1       -0.0003
     40 C          64.9733   93.2285   10.2059 C.ar    1  UNL1       -0.0042
     41 C          59.0785   90.1765    7.4332 C.3     1  UNL1        0.1111
     42 C          58.8063   90.0852    5.9610 C.3     1  UNL1        0.0940
     43 N          59.5651   90.9546    5.0027 N.3     1  UNL1       -0.2670
     44 C          61.0388   90.7507    4.8106 C.3     1  UNL1        0.1047
     45 C          61.7976   91.6201    3.8524 C.3     1  UNL1        0.1595
     46 O          61.0828   92.6934    3.0861 O.3     1  UNL1       -0.3508
     47 C          59.6092   92.8973    3.2782 C.3     1  UNL1        0.1595
     48 C          58.8503   92.0279    4.2365 C.3     1  UNL1        0.1047
@<TRIPOS>BOND
     1    23    24    2
     2    24    25   am
     3    25    22    1
     4    22    34    1
     5    34    35    1
     6    35    36   ar
     7    36    37   ar
     8    37    38   ar
     9    38    39   ar
    10    39    40   ar
    11    22    19    1
    12    19    20    1
    13    19    18    1
    14    18     1    1
    15     1    41    1
    16    41    42    1
    17    42    43    1
    18    43    44    1
    19    44    45    1
    20    45    46    1
    21    46    47    1
    22    47    48    1
    23     1     2   am
    24     2     3    2
    25     2     4    1
    26     4     5   ar
    27     5     6   ar
    28     6     7   ar
    29     7     8   ar
    30     8     9   ar
    31     9    13    1
    32    13    14    1
    33    14    15    1
    34    15    16    1
    35    16    17    1
    36     9    10   ar
    37    10    11   ar
    38    11    12   ar
    39    24    27    1
    40    27    28    1
    41    28    29    1
    42    29    30   ar
    43    30    31   ar
    44    31    32   ar
    45    32    33   ar
    46    40    35   ar
    47    48    43    1
    48    12     4   ar
    49    33    29   ar
    50    11     7   ar
    51    17    13    1
    52    25    26    1
    53    20    21    1
@<TRIPOS>MOLECULE
*****
 48 53 0 0 0
SMALL
GASTEIGER

@<TRIPOS>ATOM
      1 N          63.9107   90.2828   14.0532 N.am    1  UNL1       -0.2721
      2 C          64.7403   89.2552   14.7645 C.2     1  UNL1        0.2492
      3 O          66.1583   89.5663   15.1418 O.2     1  UNL1       -0.2699
      4 C          64.1518   87.9165   15.0984 C.ar    1  UNL1        0.0567
      5 C          63.5488   87.6786   16.4511 C.ar    1  UNL1        0.0063
      6 C          62.9603   86.3399   16.7850 C.ar    1  UNL1        0.0225
      7 C          62.9748   85.2391   15.7662 C.ar    1  UNL1        0.1202
      8 N          62.4733   83.8260   15.8082 N.ar    1  UNL1       -0.1946
      9 C          62.7663   83.1905   14.4814 C.ar    1  UNL1        0.2924
     10 O          63.4489   84.2109   13.6195 O.2     1  UNL1       -0.4237
     11 C          63.5778   85.4769   14.4135 C.ar    1  UNL1        0.1662
     12 C          64.1662   86.8156   14.0796 C.ar    1  UNL1        0.0437
     13 N          62.4349   81.7820   14.0860 N.pl3   1  UNL1       -0.2636
     14 C          63.3832   80.7899   13.4806 C.3     1  UNL1        0.0951
     15 C          62.6313   79.5131   13.2470 C.3     1  UNL1        0.0233
     16 C          61.2184   79.7162   13.7079 C.3     1  UNL1        0.0233
     17 C          61.0970   81.1185   14.2265 C.3     1  UNL1        0.0951
     18 C          62.4927   89.9717   13.6759 C.3     1  UNL1        0.1246
     19 C          62.1816   89.4254   12.3139 C.3     1  UNL1        0.1484
     20 O          62.6214   88.0401   11.9431 O.3     1  UNL1       -0.3810
     21 H          63.0900   87.6385   12.6915 H       1  UNL1        0.2105
     22 C          61.4308   90.2644   11.3228 C.3     1  UNL1        0.1075
     23 O          64.3396   90.3660   10.5959 O.2     1  UNL1       -0.2264
     24 C          63.4866   91.5910   10.4488 C.2     1  UNL1        0.4020
     25 N          62.0321   91.5403   10.8122 N.am    1  UNL1       -0.2695
     26 H          61.4722   92.3443   10.7157 H       1  UNL1        0.1528
     27 O          64.0879   92.8668    9.9382 O.3     1  UNL1       -0.4291
     28 C          65.1992   93.5288   10.6977 C.3     1  UNL1        0.2447
     29 C          66.6009   93.4861   10.1653 C.ar    1  UNL1        0.0714
     30 C          67.4109   94.6672    9.7192 C.ar    1  UNL1        0.1053
     31 N          68.7493   94.1660    9.2637 N.ar    1  UNL1       -0.2350
     32 C          68.7664   92.6751    9.4283 C.ar    1  UNL1        0.1343
     33 S          67.4387   92.2550    9.9856 S.2     1  UNL1       -0.0652
     34 C          60.0786   89.8276   10.8423 C.3     1  UNL1        0.0485
     35 C          59.9644   88.8650    9.6977 C.ar    1  UNL1       -0.0204
     36 C          60.1811   87.3985    9.9266 C.ar    1  UNL1       -0.0042
     37 C          60.0668   86.4358    8.7818 C.ar    1  UNL1       -0.0003
     38 C          59.7359   86.9397    7.4083 C.ar    1  UNL1       -0.0000
     39 C          59.5192   88.4063    7.1795 C.ar    1  UNL1       -0.0003
     40 C          59.6334   89.3689    8.3241 C.ar    1  UNL1       -0.0042
     41 C          64.4993   91.6216   13.7193 C.3     1  UNL1        0.1111
     42 C          65.2144   92.4110   14.7753 C.3     1  UNL1        0.0940
     43 N          66.7065   92.5553   14.7223 N.3     1  UNL1       -0.2670
     44 C          67.4750   91.9807   13.5693 C.3     1  UNL1        0.1047
     45 C          68.9671   92.1250   13.5162 C.3     1  UNL1        0.1595
     46 O          69.6907   92.8438   14.6161 O.3     1  UNL1       -0.3508
     47 C          68.9222   93.4184   15.7690 C.3     1  UNL1        0.1595
     48 C          67.4301   93.2741   15.8221 C.3     1  UNL1        0.1047
@<TRIPOS>BOND
     1    23    24    2
     2    24    25   am
     3    25    22    1
     4    22    34    1
     5    34    35    1
     6    35    36   ar
     7    36    37   ar
     8    37    38   ar
     9    38    39   ar
    10    39    40   ar
    11    22    19    1
    12    19    20    1
    13    19    18    1
    14    18     1    1
    15     1    41    1
    16    41    42    1
    17    42    43    1
    18    43    44    1
    19    44    45    1
    20    45    46    1
    21    46    47    1
    22    47    48    1
    23     1     2   am
    24     2     3    2
    25     2     4    1
    26     4     5   ar
    27     5     6   ar
    28     6     7   ar
    29     7     8   ar
    30     8     9   ar
    31     9    13    1
    32    13    14    1
    33    14    15    1
    34    15    16    1
    35    16    17    1
    36     9    10   ar
    37    10    11   ar
    38    11    12   ar
    39    24    27    1
    40    27    28    1
    41    28    29    1
    42    29    30   ar
    43    30    31   ar
    44    31    32   ar
    45    32    33   ar
    46    40    35   ar
    47    48    43    1
    48    12     4   ar
    49    33    29   ar
    50    11     7   ar
    51    17    13    1
    52    25    26    1
    53    20    21    1
@<TRIPOS>MOLECULE
*****
 48 53 0 0 0
SMALL
GASTEIGER

@<TRIPOS>ATOM
      1 N          60.4641   88.6168    9.0596 N.am    1  UNL1       -0.2721
      2 C          59.7449   88.2882    7.7850 C.2     1  UNL1        0.2492
      3 O          59.2996   86.8812    7.5164 O.2     1  UNL1       -0.2699
      4 C          59.4710   89.3665    6.7789 C.ar    1  UNL1        0.0567
      5 C          58.0704   89.8625    6.5736 C.ar    1  UNL1        0.0063
      6 C          57.7965   90.9408    5.5675 C.ar    1  UNL1        0.0225
      7 C          58.9233   91.5231    4.7667 C.ar    1  UNL1        0.1202
      8 N          58.9587   92.5882    3.7110 N.ar    1  UNL1       -0.1946
      9 C          60.3813   92.7504    3.2639 C.ar    1  UNL1        0.2924
     10 O          61.2250   91.7856    4.0431 O.2     1  UNL1       -0.4237
     11 C          60.3239   91.0271    4.9719 C.ar    1  UNL1        0.1662
     12 C          60.5978   89.9488    5.9780 C.ar    1  UNL1        0.0437
     13 N          60.8738   93.7092    2.2206 N.pl3   1  UNL1       -0.2636
     14 C          60.4862   95.1530    2.0968 C.3     1  UNL1        0.0951
     15 C          61.2132   95.7285    0.9176 C.3     1  UNL1        0.0233
     16 C          62.0499   94.6404    0.3128 C.3     1  UNL1        0.0233
     17 C          61.8401   93.3923    1.1181 C.3     1  UNL1        0.0951
     18 C          60.9094   90.0238    9.3282 C.3     1  UNL1        0.1246
     19 C          61.2447   90.4503   10.7267 C.3     1  UNL1        0.1484
     20 O          60.2435   90.2640   11.8280 O.3     1  UNL1       -0.3810
     21 H          59.4393   89.8580   11.4685 H       1  UNL1        0.2105
     22 C          62.5812   91.0632   11.0238 C.3     1  UNL1        0.1075
     23 O          63.4644   88.6617   12.5899 O.2     1  UNL1       -0.2264
     24 C          63.4767   90.0192   13.2279 C.2     1  UNL1        0.4020
     25 N          63.0351   91.2200   12.4449 N.am    1  UNL1       -0.2695
     26 H          63.0432   92.1109   12.8636 H       1  UNL1        0.1528
     27 O          63.9307   90.1759   14.6490 O.3     1  UNL1       -0.4291
     28 C          65.3935   90.2891   14.9609 C.3     1  UNL1        0.2447
     29 C          66.0749   91.6235   14.8880 C.ar    1  UNL1        0.0714
     30 C          65.7215   92.7441   13.9556 C.ar    1  UNL1        0.1053
     31 N          66.6574   93.8847   14.2261 N.ar    1  UNL1       -0.2350
     32 C          67.5892   93.4690   15.3257 C.ar    1  UNL1        0.1343
     33 S          67.2291   92.0715   15.7347 S.2     1  UNL1       -0.0652
     34 C          63.4637   91.5193    9.8999 C.3     1  UNL1        0.0485
     35 C          64.6834   92.3423   10.1908 C.ar    1  UNL1       -0.0204
     36 C          66.0071   91.6709   10.4078 C.ar    1  UNL1       -0.0042
     37 C          67.2269   92.4940   10.6987 C.ar    1  UNL1       -0.0003
     38 C          67.1230   93.9886   10.7726 C.ar    1  UNL1       -0.0000
     39 C          65.7993   94.6600   10.5557 C.ar    1  UNL1       -0.0003
     40 C          64.5796   93.8370   10.2648 C.ar    1  UNL1       -0.0042
     41 C          60.7380   87.5385   10.0658 C.3     1  UNL1        0.1111
     42 C          61.1536   86.1723    9.6066 C.3     1  UNL1        0.0940
     43 N          62.1215   85.3688   10.4235 N.3     1  UNL1       -0.2670
     44 C          62.1293   85.4976   11.9180 C.3     1  UNL1        0.1047
     45 C          63.0972   84.6940   12.7350 C.3     1  UNL1        0.1595
     46 O          64.0572   83.7616   12.0575 O.3     1  UNL1       -0.3508
     47 C          64.0494   83.6328   10.5631 C.3     1  UNL1        0.1595
     48 C          63.0815   84.4364    9.7461 C.3     1  UNL1        0.1047
@<TRIPOS>BOND
     1    23    24    2
     2    24    25   am
     3    25    22    1
     4    22    34    1
     5    34    35    1
     6    35    36   ar
     7    36    37   ar
     8    37    38   ar
     9    38    39   ar
    10    39    40   ar
    11    22    19    1
    12    19    20    1
    13    19    18    1
    14    18     1    1
    15     1    41    1
    16    41    42    1
    17    42    43    1
    18    43    44    1
    19    44    45    1
    20    45    46    1
    21    46    47    1
    22    47    48    1
    23     1     2   am
    24     2     3    2
    25     2     4    1
    26     4     5   ar
    27     5     6   ar
    28     6     7   ar
    29     7     8   ar
    30     8     9   ar
    31     9    13    1
    32    13    14    1
    33    14    15    1
    34    15    16    1
    35    16    17    1
    36     9    10   ar
    37    10    11   ar
    38    11    12   ar
    39    24    27    1
    40    27    28    1
    41    28    29    1
    42    29    30   ar
    43    30    31   ar
    44    31    32   ar
    45    32    33   ar
    46    40    35   ar
    47    48    43    1
    48    12     4   ar
    49    33    29   ar
    50    11     7   ar
    51    17    13    1
    52    25    26    1
    53    20    21    1
