@<TRIPOS>MOLECULE
*****
 24 26 0 0 0
SMALL
GASTEIGER

@<TRIPOS>ATOM
      1 C          63.7296   87.4248   13.3903 C.2     1  UNL1       -0.0238
      2 C          63.8980   88.9121   13.4884 C.2     1  UNL1       -0.0420
      3 C          63.2054   89.5354   12.3129 C.3     1  UNL1        0.0481
      4 C          62.6090   88.4334   11.4884 C.ar    1  UNL1       -0.0162
      5 C          61.8128   88.4492   10.2173 C.ar    1  UNL1        0.0257
      6 C          61.3405   87.1606    9.6121 C.ar    1  UNL1        0.1398
      7 F          60.5443   87.1763    8.3409 F       1  UNL1       -0.2042
      8 C          61.6645   85.8561   10.2780 C.ar    1  UNL1        0.0296
      9 C          62.4607   85.8403   11.5491 C.ar    1  UNL1        0.0017
     10 C          62.9330   87.1289   12.1543 C.ar    1  UNL1       -0.0077
     11 C          64.2640   86.4113   14.3584 C.3     1  UNL1        0.0763
     12 C          62.6901   84.4660   15.0574 C.ar    1  UNL1        0.2393
     13 N          62.2718   83.0298   14.9468 N.ar    1  UNL1       -0.2075
     14 C          63.0091   82.1026   14.0267 C.ar    1  UNL1        0.1227
     15 C          64.1648   82.6116   13.2171 C.ar    1  UNL1        0.1193
     16 N          64.5830   84.0478   13.3277 N.ar    1  UNL1       -0.2415
     17 C          63.8457   84.9751   14.2479 C.ar    1  UNL1        0.1163
     18 C          62.6012   85.8638   17.2456 C.3     1  UNL1        0.2543
     19 O          61.9527   85.3932   15.9775 O.3     1  UNL1       -0.4553
     20 C          64.6304   89.6470   14.5717 C.3     1  UNL1        0.0394
     21 C          64.3935   91.1141   14.7750 C.3     1  UNL1        0.0765
     22 N          65.4173   92.1098   14.3161 N.3     1  UNL1       -0.2700
     23 C          66.3164   92.7757   15.3152 C.3     1  UNL1        0.0897
     24 C          65.5419   92.4395   12.8581 C.3     1  UNL1        0.0897
@<TRIPOS>BOND
     1    18    19    1
     2    19    12    1
     3    12    13   ar
     4    13    14   ar
     5    14    15   ar
     6    15    16   ar
     7    16    17   ar
     8    17    11    1
     9    11     1    1
    10     1     2    2
    11     2    20    1
    12    20    21    1
    13    21    22    1
    14    22    23    1
    15    22    24    1
    16     2     3    1
    17     3     4    1
    18     4     5   ar
    19     5     6   ar
    20     6     7    1
    21     6     8   ar
    22     8     9   ar
    23     9    10   ar
    24    17    12   ar
    25    10     1    1
    26    10     4   ar
@<TRIPOS>MOLECULE
*****
 24 26 0 0 0
SMALL
GASTEIGER

@<TRIPOS>ATOM
      1 C          63.1410   89.4408   12.5544 C.2     1  UNL1       -0.0238
      2 C          63.5818   88.1491   13.1766 C.2     1  UNL1       -0.0420
      3 C          63.0471   87.0252   12.3393 C.3     1  UNL1        0.0481
      4 C          62.2758   87.6223   11.1998 C.ar    1  UNL1       -0.0162
      5 C          61.5282   86.9995   10.0583 C.ar    1  UNL1        0.0257
      6 C          60.8386   87.8696    9.0497 C.ar    1  UNL1        0.1398
      7 F          60.0909   87.2468    7.9082 F       1  UNL1       -0.2042
      8 C          60.8966   89.3626    9.1827 C.ar    1  UNL1        0.0296
      9 C          61.6442   89.9854   10.3242 C.ar    1  UNL1        0.0017
     10 C          62.3338   89.1153   11.3327 C.ar    1  UNL1       -0.0077
     11 C          63.4526   90.8166   13.0644 C.3     1  UNL1        0.0763
     12 C          65.7834   91.9372   13.3121 C.ar    1  UNL1        0.2393
     13 N          66.9192   92.7174   12.7195 N.ar    1  UNL1       -0.2075
     14 C          66.8600   93.1573   11.2867 C.ar    1  UNL1        0.1227
     15 C          65.6650   92.8169   10.4464 C.ar    1  UNL1        0.1193
     16 N          64.5292   92.0367   11.0390 N.ar    1  UNL1       -0.2415
     17 C          64.5884   91.5968   12.4719 C.ar    1  UNL1        0.1163
     18 C          66.1252   92.4985   15.8257 C.3     1  UNL1        0.2543
     19 O          65.8427   91.4974   14.7449 O.3     1  UNL1       -0.4553
     20 C          64.4117   88.0063   14.4179 C.3     1  UNL1        0.0394
     21 C          64.6347   86.6503   15.0192 C.3     1  UNL1        0.0765
     22 N          63.5433   85.9919   15.8100 N.3     1  UNL1       -0.2700
     23 C          62.9840   84.6736   15.3633 C.3     1  UNL1        0.0897
     24 C          63.0113   86.6516   17.0476 C.3     1  UNL1        0.0897
@<TRIPOS>BOND
     1    18    19    1
     2    19    12    1
     3    12    13   ar
     4    13    14   ar
     5    14    15   ar
     6    15    16   ar
     7    16    17   ar
     8    17    11    1
     9    11     1    1
    10     1     2    2
    11     2    20    1
    12    20    21    1
    13    21    22    1
    14    22    23    1
    15    22    24    1
    16     2     3    1
    17     3     4    1
    18     4     5   ar
    19     5     6   ar
    20     6     7    1
    21     6     8   ar
    22     8     9   ar
    23     9    10   ar
    24    17    12   ar
    25    10     1    1
    26    10     4   ar
@<TRIPOS>MOLECULE
*****
 24 26 0 0 0
SMALL
GASTEIGER

@<TRIPOS>ATOM
      1 C          63.5110   88.5516   12.8385 C.2     1  UNL1       -0.0238
      2 C          63.1763   89.9811   12.5312 C.2     1  UNL1       -0.0420
      3 C          62.2123   89.9947   11.3821 C.3     1  UNL1        0.0481
      4 C          61.9512   88.5736   10.9792 C.ar    1  UNL1       -0.0162
      5 C          61.0862   87.9765    9.9090 C.ar    1  UNL1        0.0257
      6 C          61.0240   86.4876    9.7389 C.ar    1  UNL1        0.1398
      7 F          60.1590   85.8904    8.6687 F       1  UNL1       -0.2042
      8 C          61.8266   85.5956   10.6390 C.ar    1  UNL1        0.0296
      9 C          62.6915   86.1927   11.7092 C.ar    1  UNL1        0.0017
     10 C          62.7538   87.6817   11.8793 C.ar    1  UNL1       -0.0077
     11 C          64.4397   88.0755   13.9158 C.3     1  UNL1        0.0763
     12 C          63.9375   86.0129   15.4136 C.ar    1  UNL1        0.2393
     13 N          63.3820   85.4313   16.6798 N.ar    1  UNL1       -0.2075
     14 C          62.7734   86.3308   17.7144 C.ar    1  UNL1        0.1227
     15 C          62.7201   87.8119   17.4828 C.ar    1  UNL1        0.1193
     16 N          63.2756   88.3934   16.2166 N.ar    1  UNL1       -0.2415
     17 C          63.8843   87.4939   15.1819 C.ar    1  UNL1        0.1163
     18 C          64.2595   83.6412   14.4030 C.3     1  UNL1        0.2543
     19 O          64.5462   85.1133   14.3790 O.3     1  UNL1       -0.4553
     20 C          63.7116   91.1855   13.2473 C.3     1  UNL1        0.0394
     21 C          65.0074   91.8027   12.8116 C.3     1  UNL1        0.0765
     22 N          65.7943   92.6488   13.7681 N.3     1  UNL1       -0.2700
     23 C          65.9180   92.2382   15.2056 C.3     1  UNL1        0.0897
     24 C          66.4574   93.9054   13.2873 C.3     1  UNL1        0.0897
@<TRIPOS>BOND
     1    18    19    1
     2    19    12    1
     3    12    13   ar
     4    13    14   ar
     5    14    15   ar
     6    15    16   ar
     7    16    17   ar
     8    17    11    1
     9    11     1    1
    10     1     2    2
    11     2    20    1
    12    20    21    1
    13    21    22    1
    14    22    23    1
    15    22    24    1
    16     2     3    1
    17     3     4    1
    18     4     5   ar
    19     5     6   ar
    20     6     7    1
    21     6     8   ar
    22     8     9   ar
    23     9    10   ar
    24    17    12   ar
    25    10     1    1
    26    10     4   ar
@<TRIPOS>MOLECULE
*****
 24 26 0 0 0
SMALL
GASTEIGER

@<TRIPOS>ATOM
      1 C          62.9720   89.3900   12.2377 C.2     1  UNL1       -0.0238
      2 C          62.3002   88.8393   11.0148 C.2     1  UNL1       -0.0420
      3 C          62.3783   87.3427   11.0774 C.3     1  UNL1        0.0481
      4 C          63.0983   86.9684   12.3389 C.ar    1  UNL1       -0.0162
      5 C          63.4672   85.6388   12.9273 C.ar    1  UNL1        0.0257
      6 C          64.2031   85.5747   14.2328 C.ar    1  UNL1        0.1398
      7 F          64.5720   84.2451   14.8212 F       1  UNL1       -0.2042
      8 C          64.5700   86.8400   14.9499 C.ar    1  UNL1        0.0296
      9 C          64.2011   88.1695   14.3616 C.ar    1  UNL1        0.0017
     10 C          63.4652   88.2337   13.0561 C.ar    1  UNL1       -0.0077
     11 C          63.1239   90.8421   12.5819 C.3     1  UNL1        0.0763
     12 C          65.3774   91.9555   13.2389 C.ar    1  UNL1        0.2393
     13 N          66.6246   92.6922   12.8493 N.ar    1  UNL1       -0.2075
     14 C          66.8654   93.0522   11.4132 C.ar    1  UNL1        0.1227
     15 C          65.8590   92.6755   10.3666 C.ar    1  UNL1        0.1193
     16 N          64.6119   91.9388   10.7562 N.ar    1  UNL1       -0.2415
     17 C          64.3710   91.5787   12.1924 C.ar    1  UNL1        0.1163
     18 C          65.7934   92.3870   15.7669 C.3     1  UNL1        0.2543
     19 O          65.1367   91.5955   14.6750 O.3     1  UNL1       -0.4553
     20 C          61.6624   89.6440    9.9213 C.3     1  UNL1        0.0394
     21 C          60.2105   89.4513    9.5976 C.3     1  UNL1        0.0765
     22 N          59.8083   88.5798    8.4449 N.3     1  UNL1       -0.2700
     23 C          59.7142   87.0936    8.6254 C.3     1  UNL1        0.0897
     24 C          59.5002   89.1944    7.1118 C.3     1  UNL1        0.0897
@<TRIPOS>BOND
     1    18    19    1
     2    19    12    1
     3    12    13   ar
     4    13    14   ar
     5    14    15   ar
     6    15    16   ar
     7    16    17   ar
     8    17    11    1
     9    11     1    1
    10     1     2    2
    11     2    20    1
    12    20    21    1
    13    21    22    1
    14    22    23    1
    15    22    24    1
    16     2     3    1
    17     3     4    1
    18     4     5   ar
    19     5     6   ar
    20     6     7    1
    21     6     8   ar
    22     8     9   ar
    23     9    10   ar
    24    17    12   ar
    25    10     1    1
    26    10     4   ar
@<TRIPOS>MOLECULE
*****
 24 26 0 0 0
SMALL
GASTEIGER

@<TRIPOS>ATOM
      1 C          62.2205   88.7277   11.3796 C.2     1  UNL1       -0.0238
      2 C          62.0444   89.7980   10.3436 C.2     1  UNL1       -0.0420
      3 C          62.9056   90.9636   10.7304 C.3     1  UNL1        0.0481
      4 C          63.6139   90.6137   12.0055 C.ar    1  UNL1       -0.0162
      5 C          64.5898   91.3748   12.8530 C.ar    1  UNL1        0.0257
      6 C          65.1422   90.7541   14.1017 C.ar    1  UNL1        0.1398
      7 F          66.1181   91.5152   14.9493 F       1  UNL1       -0.2042
      8 C          64.7187   89.3722   14.5030 C.ar    1  UNL1        0.0296
      9 C          63.7429   88.6110   13.6555 C.ar    1  UNL1        0.0017
     10 C          63.1905   89.2318   12.4067 C.ar    1  UNL1       -0.0077
     11 C          61.5451   87.3883   11.3872 C.3     1  UNL1        0.0763
     12 C          62.7260   85.1030   11.7513 C.ar    1  UNL1        0.2393
     13 N          63.4334   83.9031   11.1947 N.ar    1  UNL1       -0.2075
     14 C          63.6673   83.7886    9.7175 C.ar    1  UNL1        0.1227
     15 C          63.1938   84.8740    8.7968 C.ar    1  UNL1        0.1193
     16 N          62.4864   86.0739    9.3534 N.ar    1  UNL1       -0.2415
     17 C          62.2525   86.1885   10.8307 C.ar    1  UNL1        0.1163
     18 C          62.6628   84.0159   14.1102 C.3     1  UNL1        0.2543
     19 O          62.4921   85.2174   13.2285 O.3     1  UNL1       -0.4553
     20 C          61.1620   89.7169    9.1333 C.3     1  UNL1        0.0394
     21 C          59.9785   88.7955    9.1283 C.3     1  UNL1        0.0765
     22 N          59.4205   88.2983    7.8277 N.3     1  UNL1       -0.2700
     23 C          59.2516   89.2423    6.6743 C.3     1  UNL1        0.0897
     24 C          59.0314   86.8571    7.6806 C.3     1  UNL1        0.0897
@<TRIPOS>BOND
     1    18    19    1
     2    19    12    1
     3    12    13   ar
     4    13    14   ar
     5    14    15   ar
     6    15    16   ar
     7    16    17   ar
     8    17    11    1
     9    11     1    1
    10     1     2    2
    11     2    20    1
    12    20    21    1
    13    21    22    1
    14    22    23    1
    15    22    24    1
    16     2     3    1
    17     3     4    1
    18     4     5   ar
    19     5     6   ar
    20     6     7    1
    21     6     8   ar
    22     8     9   ar
    23     9    10   ar
    24    17    12   ar
    25    10     1    1
    26    10     4   ar
@<TRIPOS>MOLECULE
*****
 24 26 0 0 0
SMALL
GASTEIGER

@<TRIPOS>ATOM
      1 C          61.4793   87.4324   10.9289 C.2     1  UNL1       -0.0238
      2 C          62.2770   88.6634   11.2424 C.2     1  UNL1       -0.0420
      3 C          61.9667   89.6950   10.1987 C.3     1  UNL1        0.0481
      4 C          60.9771   89.1016    9.2401 C.ar    1  UNL1       -0.0162
      5 C          60.3115   89.6540    8.0147 C.ar    1  UNL1        0.0257
      6 C          59.3446   88.8080    7.2406 C.ar    1  UNL1        0.1398
      7 F          58.6789   89.3603    6.0151 F       1  UNL1       -0.2042
      8 C          59.0434   87.4096    7.6919 C.ar    1  UNL1        0.0296
      9 C          59.7090   86.8572    8.9174 C.ar    1  UNL1        0.0017
     10 C          60.6759   87.7032    9.6915 C.ar    1  UNL1       -0.0077
     11 C          61.4840   86.1548   11.7149 C.3     1  UNL1        0.0763
     12 C          63.2742   84.4853   12.5856 C.ar    1  UNL1        0.2393
     13 N          64.3183   83.4427   12.3159 N.ar    1  UNL1       -0.2075
     14 C          64.6163   83.0268   10.9058 C.ar    1  UNL1        0.1227
     15 C          63.8702   83.6536    9.7654 C.ar    1  UNL1        0.1193
     16 N          62.8261   84.6963   10.0351 N.ar    1  UNL1       -0.2415
     17 C          62.5281   85.1122   11.4452 C.ar    1  UNL1        0.1163
     18 C          64.1003   85.1998   14.9429 C.3     1  UNL1        0.2543
     19 O          62.9762   84.9011   13.9957 O.3     1  UNL1       -0.4553
     20 C          63.2196   88.8329   12.3969 C.3     1  UNL1        0.0394
     21 C          63.2565   90.1291   13.1508 C.3     1  UNL1        0.0765
     22 N          64.0274   90.2289   14.4337 N.3     1  UNL1       -0.2700
     23 C          65.3940   90.8474   14.4413 C.3     1  UNL1        0.0897
     24 C          63.4318   89.7103   15.7088 C.3     1  UNL1        0.0897
@<TRIPOS>BOND
     1    18    19    1
     2    19    12    1
     3    12    13   ar
     4    13    14   ar
     5    14    15   ar
     6    15    16   ar
     7    16    17   ar
     8    17    11    1
     9    11     1    1
    10     1     2    2
    11     2    20    1
    12    20    21    1
    13    21    22    1
    14    22    23    1
    15    22    24    1
    16     2     3    1
    17     3     4    1
    18     4     5   ar
    19     5     6   ar
    20     6     7    1
    21     6     8   ar
    22     8     9   ar
    23     9    10   ar
    24    17    12   ar
    25    10     1    1
    26    10     4   ar
@<TRIPOS>MOLECULE
*****
 24 26 0 0 0
SMALL
GASTEIGER

@<TRIPOS>ATOM
      1 C          63.6453   86.6551   13.3915 C.2     1  UNL1       -0.0238
      2 C          63.2880   85.2242   13.1178 C.2     1  UNL1       -0.0420
      3 C          62.4659   85.1834   11.8639 C.3     1  UNL1        0.0481
      4 C          62.3150   86.5891   11.3625 C.ar    1  UNL1       -0.0162
      5 C          61.6081   87.1584   10.1683 C.ar    1  UNL1        0.0257
      6 C          61.6301   88.6372    9.9183 C.ar    1  UNL1        0.1398
      7 F          60.9231   89.2065    8.7240 F       1  UNL1       -0.2042
      8 C          62.3590   89.5467   10.8624 C.ar    1  UNL1        0.0296
      9 C          63.0659   88.9775   12.0566 C.ar    1  UNL1        0.0017
     10 C          63.0439   87.4987   12.3067 C.ar    1  UNL1       -0.0077
     11 C          64.4607   87.1548   14.5471 C.3     1  UNL1        0.0763
     12 C          63.2325   88.7811   16.1584 C.ar    1  UNL1        0.2393
     13 N          63.0140   90.1679   16.6866 N.ar    1  UNL1       -0.2075
     14 C          63.8050   91.3151   16.1317 C.ar    1  UNL1        0.1227
     15 C          64.8147   91.0756   15.0486 C.ar    1  UNL1        0.1193
     16 N          65.0333   89.6888   14.5204 N.ar    1  UNL1       -0.2415
     17 C          64.2421   88.5415   15.0753 C.ar    1  UNL1        0.1163
     18 C          62.8774   86.9674   17.9845 C.3     1  UNL1        0.2543
     19 O          62.4413   87.6338   16.7134 O.3     1  UNL1       -0.4553
     20 C          63.6835   84.0417   13.9517 C.3     1  UNL1        0.0394
     21 C          62.6292   83.1396   14.5215 C.3     1  UNL1        0.0765
     22 N          62.4187   81.7723   13.9418 N.3     1  UNL1       -0.2700
     23 C          63.5178   81.1095   13.1653 C.3     1  UNL1        0.0897
     24 C          61.1092   81.0678   14.1384 C.3     1  UNL1        0.0897
@<TRIPOS>BOND
     1    18    19    1
     2    19    12    1
     3    12    13   ar
     4    13    14   ar
     5    14    15   ar
     6    15    16   ar
     7    16    17   ar
     8    17    11    1
     9    11     1    1
    10     1     2    2
    11     2    20    1
    12    20    21    1
    13    21    22    1
    14    22    23    1
    15    22    24    1
    16     2     3    1
    17     3     4    1
    18     4     5   ar
    19     5     6   ar
    20     6     7    1
    21     6     8   ar
    22     8     9   ar
    23     9    10   ar
    24    17    12   ar
    25    10     1    1
    26    10     4   ar
@<TRIPOS>MOLECULE
*****
 24 26 0 0 0
SMALL
GASTEIGER

@<TRIPOS>ATOM
      1 C          63.5269   85.8015   12.9237 C.2     1  UNL1       -0.0238
      2 C          63.2132   84.3537   12.6880 C.2     1  UNL1       -0.0420
      3 C          62.3051   84.2641   11.4975 C.3     1  UNL1        0.0481
      4 C          62.0576   85.6565   10.9974 C.ar    1  UNL1       -0.0162
      5 C          61.2422   86.1819    9.8533 C.ar    1  UNL1        0.0257
      6 C          61.1818   87.6574    9.5907 C.ar    1  UNL1        0.1398
      7 F          60.3664   88.1829    8.4466 F       1  UNL1       -0.2042
      8 C          61.9369   88.6076   10.4722 C.ar    1  UNL1        0.0296
      9 C          62.7523   88.0822   11.6163 C.ar    1  UNL1        0.0017
     10 C          62.8127   86.6066   11.8789 C.ar    1  UNL1       -0.0077
     11 C          64.4013   86.3482   14.0130 C.3     1  UNL1        0.0763
     12 C          63.7221   88.1701   15.7362 C.ar    1  UNL1        0.2393
     13 N          63.1244   88.5487   17.0588 N.ar    1  UNL1       -0.2075
     14 C          62.6080   87.4843   17.9808 C.ar    1  UNL1        0.1227
     15 C          62.6894   86.0410   17.5803 C.ar    1  UNL1        0.1193
     16 N          63.2871   85.6623   16.2577 N.ar    1  UNL1       -0.2415
     17 C          63.8035   86.7269   15.3356 C.ar    1  UNL1        0.1163
     18 C          64.1234   90.6800   15.1985 C.3     1  UNL1        0.2543
     19 O          64.2385   89.2347   14.8142 O.3     1  UNL1       -0.4553
     20 C          63.7188   83.1984   13.5002 C.3     1  UNL1        0.0394
     21 C          62.7610   82.3721   14.3062 C.3     1  UNL1        0.0765
     22 N          62.0596   81.2068   13.6738 N.3     1  UNL1       -0.2700
     23 C          60.7004   80.7966   14.1582 C.3     1  UNL1        0.0897
     24 C          62.7172   80.4516   12.5570 C.3     1  UNL1        0.0897
@<TRIPOS>BOND
     1    18    19    1
     2    19    12    1
     3    12    13   ar
     4    13    14   ar
     5    14    15   ar
     6    15    16   ar
     7    16    17   ar
     8    17    11    1
     9    11     1    1
    10     1     2    2
    11     2    20    1
    12    20    21    1
    13    21    22    1
    14    22    23    1
    15    22    24    1
    16     2     3    1
    17     3     4    1
    18     4     5   ar
    19     5     6   ar
    20     6     7    1
    21     6     8   ar
    22     8     9   ar
    23     9    10   ar
    24    17    12   ar
    25    10     1    1
    26    10     4   ar
@<TRIPOS>MOLECULE
*****
 24 26 0 0 0
SMALL
GASTEIGER

@<TRIPOS>ATOM
      1 C          62.8102   86.2141   12.6775 C.2     1  UNL1       -0.0238
      2 C          63.6055   87.3341   13.2801 C.2     1  UNL1       -0.0420
      3 C          63.3862   88.5602   12.4444 C.3     1  UNL1        0.0481
      4 C          62.4554   88.1981   11.3252 C.ar    1  UNL1       -0.0162
      5 C          61.8860   89.0013   10.1936 C.ar    1  UNL1        0.0257
      6 C          60.9606   88.3545    9.2061 C.ar    1  UNL1        0.1398
      7 F          60.3912   89.1577    8.0744 F       1  UNL1       -0.2042
      8 C          60.6046   86.9045    9.3502 C.ar    1  UNL1        0.0296
      9 C          61.1740   86.1013   10.4818 C.ar    1  UNL1        0.0017
     10 C          62.0994   86.7481   11.4693 C.ar    1  UNL1       -0.0077
     11 C          62.7383   84.8072   13.1926 C.3     1  UNL1        0.0763
     12 C          62.6299   82.2673   12.6567 C.ar    1  UNL1        0.2393
     13 N          62.9399   81.1178   11.7443 N.ar    1  UNL1       -0.2075
     14 C          63.6683   81.3586   10.4554 C.ar    1  UNL1        0.1227
     15 C          64.0868   82.7490   10.0788 C.ar    1  UNL1        0.1193
     16 N          63.7768   83.8985   10.9913 N.ar    1  UNL1       -0.2415
     17 C          63.0483   83.6577   12.2803 C.ar    1  UNL1        0.1163
     18 C          60.9520   80.8713   14.0661 C.3     1  UNL1        0.2543
     19 O          61.9014   82.0264   13.9457 O.3     1  UNL1       -0.4553
     20 C          64.4685   87.2438   14.5036 C.3     1  UNL1        0.0394
     21 C          63.9641   86.5370   15.7267 C.3     1  UNL1        0.0765
     22 N          63.2191   87.3011   16.7808 N.3     1  UNL1       -0.2700
     23 C          62.5998   86.5739   17.9375 C.3     1  UNL1        0.0897
     24 C          63.0935   88.7923   16.6784 C.3     1  UNL1        0.0897
@<TRIPOS>BOND
     1    18    19    1
     2    19    12    1
     3    12    13   ar
     4    13    14   ar
     5    14    15   ar
     6    15    16   ar
     7    16    17   ar
     8    17    11    1
     9    11     1    1
    10     1     2    2
    11     2    20    1
    12    20    21    1
    13    21    22    1
    14    22    23    1
    15    22    24    1
    16     2     3    1
    17     3     4    1
    18     4     5   ar
    19     5     6   ar
    20     6     7    1
    21     6     8   ar
    22     8     9   ar
    23     9    10   ar
    24    17    12   ar
    25    10     1    1
    26    10     4   ar
