@<TRIPOS>MOLECULE
*****
 34 38 0 0 0
SMALL
GASTEIGER

@<TRIPOS>ATOM
      1 C          60.5315   86.7247    8.2121 C.3     1  UNL1        0.0795
      2 C          59.7876   87.5475    7.2023 C.3     1  UNL1        0.0178
      3 C          59.4739   88.9856    7.4910 C.3     1  UNL1        0.0029
      4 C          59.9041   89.6010    8.7896 C.3     1  UNL1        0.0178
      5 C          60.6480   88.7782    9.7993 C.3     1  UNL1        0.0799
      6 N          60.9617   87.3401    9.5106 N.3     1  UNL1       -0.1583
      7 C          61.0782   89.3936   11.0979 C.3     1  UNL1        0.0237
      8 C          59.7473   89.5257   11.7770 C.3     1  UNL1        0.0019
      9 C          60.9943   89.9806   12.4757 C.3     1  UNL1        0.0019
     10 C          62.5585   89.4752   10.8697 C.3     1  UNL1        0.0866
     11 C          63.1737   90.7558   10.3884 C.2     1  UNL1        0.2258
     12 O          62.8673   91.2636    9.0106 O.2     1  UNL1       -0.2749
     13 N          64.0952   91.5285   11.2849 N.am    1  UNL1       -0.2767
     14 C          64.7104   92.8091   10.8036 C.3     1  UNL1        0.1107
     15 C          65.6319   93.5818   11.7001 C.3     1  UNL1        0.0939
     16 N          65.9383   93.0739   13.0779 N.3     1  UNL1       -0.2709
     17 C          66.8598   93.8467   13.9744 C.3     1  UNL1        0.0722
     18 C          67.1661   93.3388   15.3521 C.3     1  UNL1        0.0174
     19 C          66.5510   92.0583   15.8334 C.3     1  UNL1        0.0029
     20 C          65.6294   91.2855   14.9369 C.3     1  UNL1        0.0177
     21 C          65.3231   91.7934   13.5591 C.3     1  UNL1        0.0774
     22 C          64.4015   91.0206   12.6626 C.3     1  UNL1        0.1093
     23 S          61.7056   86.5173   10.5204 S.O2    1  UNL1        0.0632
     24 O          62.8707   86.4177    9.5809 O.2     1  UNL1       -0.1528
     25 O          60.8501   86.4251   11.5607 O.2     1  UNL1       -0.1528
     26 C          62.4495   85.6945   11.5302 C.ar    1  UNL1        0.1222
     27 C          63.0880   86.3579   12.7144 C.ar    1  UNL1        0.0208
     28 C          63.8319   85.5351   13.7242 C.ar    1  UNL1        0.0128
     29 C          63.9373   84.0491   13.5498 C.ar    1  UNL1        0.0578
     30 CL         64.6812   83.2263   14.5595 Cl      1  UNL1       -0.0822
     31 C          63.2988   83.3857   12.3655 C.ar    1  UNL1        0.0128
     32 C          62.5549   84.2085   11.3558 C.ar    1  UNL1        0.0208
     33 C          61.6195   84.9205    6.6918 C.3     1  UNL1        0.0015
     34 C          60.8452   85.2866    7.9233 C.3     1  UNL1        0.0177
@<TRIPOS>BOND
     1    33    34    1
     2     1    34    1
     3     1     2    1
     4     2     3    1
     5     3     4    1
     6     4     5    1
     7     5     7    1
     8     7    10    1
     9    10    11    1
    10    11    12    2
    11    11    13   am
    12    13    14    1
    13    14    15    1
    14    15    16    1
    15    16    17    1
    16    17    18    1
    17    18    19    1
    18    19    20    1
    19    21    20    1
    20    21    22    1
    21     7     8    1
    22     8     9    1
    23     5     6    1
    24     6    23    1
    25    23    24    2
    26    23    25    2
    27    23    26    1
    28    26    27   ar
    29    27    28   ar
    30    28    29   ar
    31    29    30    1
    32    29    31   ar
    33    31    32   ar
    34     6     1    1
    35    32    26   ar
    36     9     7    1
    37    22    13    1
    38    21    16    1
@<TRIPOS>MOLECULE
*****
 34 38 0 0 0
SMALL
GASTEIGER

@<TRIPOS>ATOM
      1 C          60.6686   86.6031    8.0722 C.3     1  UNL1        0.0795
      2 C          59.9822   87.5259    7.1093 C.3     1  UNL1        0.0178
      3 C          59.6563   88.9313    7.5201 C.3     1  UNL1        0.0029
      4 C          60.0168   89.4138    8.8939 C.3     1  UNL1        0.0178
      5 C          60.7032   88.4910    9.8568 C.3     1  UNL1        0.0799
      6 N          61.0291   87.0856    9.4460 N.3     1  UNL1       -0.1583
      7 C          61.0638   88.9735   11.2305 C.3     1  UNL1        0.0237
      8 C          59.6932   89.2165   11.7893 C.3     1  UNL1        0.0019
      9 C          60.9049   89.4822   12.6326 C.3     1  UNL1        0.0019
     10 C          62.5597   88.8980   11.1489 C.3     1  UNL1        0.0866
     11 C          63.3923   89.1794   12.3644 C.2     1  UNL1        0.2258
     12 O          63.4375   88.1874   13.4887 O.2     1  UNL1       -0.2749
     13 N          64.1797   90.4529   12.4558 N.am    1  UNL1       -0.2767
     14 C          65.0123   90.7344   13.6713 C.3     1  UNL1        0.1107
     15 C          65.7997   92.0078   13.7626 C.3     1  UNL1        0.0939
     16 N          65.7544   92.9998   12.6384 N.3     1  UNL1       -0.2709
     17 C          66.5418   94.2733   12.7297 C.3     1  UNL1        0.0722
     18 C          66.4966   95.2653   11.6054 C.3     1  UNL1        0.0174
     19 C          65.6640   94.9838   10.3899 C.3     1  UNL1        0.0029
     20 C          64.8766   93.7103   10.2986 C.3     1  UNL1        0.0177
     21 C          64.9219   92.7183   11.4228 C.3     1  UNL1        0.0774
     22 C          64.1345   91.4449   11.3315 C.3     1  UNL1        0.1093
     23 S          61.7155   86.1628   10.4089 S.O2    1  UNL1        0.0632
     24 O          62.8649   86.0226    9.4552 O.2     1  UNL1       -0.1528
     25 O          60.8613   86.0842   11.4513 O.2     1  UNL1       -0.1528
     26 C          62.4020   85.2399   11.3718 C.ar    1  UNL1        0.1222
     27 C          62.2409   85.4427   12.8493 C.ar    1  UNL1        0.0208
     28 C          62.9273   84.5198   13.8122 C.ar    1  UNL1        0.0128
     29 C          63.7747   83.3942   13.2976 C.ar    1  UNL1        0.0578
     30 CL         64.4611   82.4714   14.2605 Cl      1  UNL1       -0.0822
     31 C          63.9358   83.1914   11.8201 C.ar    1  UNL1        0.0128
     32 C          63.2494   84.1143   10.8572 C.ar    1  UNL1        0.0208
     33 C          61.8785   84.9489    6.4753 C.3     1  UNL1        0.0015
     34 C          60.9944   85.1978    7.6614 C.3     1  UNL1        0.0177
@<TRIPOS>BOND
     1    33    34    1
     2     1    34    1
     3     1     2    1
     4     2     3    1
     5     3     4    1
     6     4     5    1
     7     5     7    1
     8     7    10    1
     9    10    11    1
    10    11    12    2
    11    11    13   am
    12    13    14    1
    13    14    15    1
    14    15    16    1
    15    16    17    1
    16    17    18    1
    17    18    19    1
    18    19    20    1
    19    21    20    1
    20    21    22    1
    21     7     8    1
    22     8     9    1
    23     5     6    1
    24     6    23    1
    25    23    24    2
    26    23    25    2
    27    23    26    1
    28    26    27   ar
    29    27    28   ar
    30    28    29   ar
    31    29    30    1
    32    29    31   ar
    33    31    32   ar
    34     6     1    1
    35    32    26   ar
    36     9     7    1
    37    22    13    1
    38    21    16    1
@<TRIPOS>MOLECULE
*****
 34 38 0 0 0
SMALL
GASTEIGER

@<TRIPOS>ATOM
      1 C          63.6014   84.4434   10.6201 C.3     1  UNL1        0.0795
      2 C          63.5912   84.2721    9.1300 C.3     1  UNL1        0.0178
      3 C          62.8653   85.2605    8.2662 C.3     1  UNL1        0.0029
      4 C          62.1494   86.4204    8.8927 C.3     1  UNL1        0.0178
      5 C          62.1596   86.5917   10.3829 C.3     1  UNL1        0.0799
      6 N          62.8855   85.6033   11.2466 N.3     1  UNL1       -0.1583
      7 C          61.4437   87.7515   11.0094 C.3     1  UNL1        0.0237
      8 C          60.0218   87.3527   10.7464 C.3     1  UNL1        0.0019
      9 C          60.3204   88.6329   11.4689 C.3     1  UNL1        0.0019
     10 C          62.6170   88.5530   11.4899 C.3     1  UNL1        0.0866
     11 C          62.9989   89.8204   10.7844 C.2     1  UNL1        0.2258
     12 O          62.5034   90.0830    9.3932 O.2     1  UNL1       -0.2749
     13 N          63.8764   90.8254   11.4702 N.am    1  UNL1       -0.2767
     14 C          64.2583   92.0928   10.7648 C.3     1  UNL1        0.1107
     15 C          65.1358   93.0977   11.4506 C.3     1  UNL1        0.0939
     16 N          65.6313   92.8351   12.8418 N.3     1  UNL1       -0.2709
     17 C          66.5088   93.8400   13.5276 C.3     1  UNL1        0.0722
     18 C          67.0043   93.5774   14.9188 C.3     1  UNL1        0.0174
     19 C          66.6224   92.3100   15.6242 C.3     1  UNL1        0.0029
     20 C          65.7449   91.3050   14.9384 C.3     1  UNL1        0.0177
     21 C          65.2494   91.5677   13.5472 C.3     1  UNL1        0.0774
     22 C          64.3719   90.5627   12.8614 C.3     1  UNL1        0.1093
     23 S          62.8957   85.7746   12.7367 S.O2    1  UNL1        0.0632
     24 O          61.7095   84.8634   12.8496 O.2     1  UNL1       -0.1528
     25 O          63.9338   86.6075   12.9626 O.2     1  UNL1       -0.1528
     26 C          62.9058   85.9459   14.2269 C.ar    1  UNL1        0.1222
     27 C          62.2674   84.9109   15.1052 C.ar    1  UNL1        0.0208
     28 C          62.2775   85.0822   16.5953 C.ar    1  UNL1        0.0128
     29 C          62.9261   86.2884   17.2072 C.ar    1  UNL1        0.0578
     30 CL         62.9362   86.4597   18.6973 Cl      1  UNL1       -0.0822
     31 C          63.5646   87.3233   16.3289 C.ar    1  UNL1        0.0128
     32 C          63.5544   87.1520   14.8388 C.ar    1  UNL1        0.0208
     33 C          63.7014   82.1274   11.7930 C.3     1  UNL1        0.0015
     34 C          64.3274   83.4550   11.4837 C.3     1  UNL1        0.0177
@<TRIPOS>BOND
     1    33    34    1
     2     1    34    1
     3     1     2    1
     4     2     3    1
     5     3     4    1
     6     4     5    1
     7     5     7    1
     8     7    10    1
     9    10    11    1
    10    11    12    2
    11    11    13   am
    12    13    14    1
    13    14    15    1
    14    15    16    1
    15    16    17    1
    16    17    18    1
    17    18    19    1
    18    19    20    1
    19    21    20    1
    20    21    22    1
    21     7     8    1
    22     8     9    1
    23     5     6    1
    24     6    23    1
    25    23    24    2
    26    23    25    2
    27    23    26    1
    28    26    27   ar
    29    27    28   ar
    30    28    29   ar
    31    29    30    1
    32    29    31   ar
    33    31    32   ar
    34     6     1    1
    35    32    26   ar
    36     9     7    1
    37    22    13    1
    38    21    16    1
@<TRIPOS>MOLECULE
*****
 34 38 0 0 0
SMALL
GASTEIGER

@<TRIPOS>ATOM
      1 C          60.9413   92.7686    2.2360 C.3     1  UNL1        0.0795
      2 C          62.1908   92.2855    2.9107 C.3     1  UNL1        0.0178
      3 C          63.5327   92.6025    2.3203 C.3     1  UNL1        0.0029
      4 C          63.6252   93.4028    1.0549 C.3     1  UNL1        0.0178
      5 C          62.3757   93.8859    0.3801 C.3     1  UNL1        0.0799
      6 N          61.0337   93.5689    0.9706 N.3     1  UNL1       -0.1583
      7 C          62.4681   94.6862   -0.8852 C.3     1  UNL1        0.0237
      8 C          62.5640   96.0691   -0.3123 C.3     1  UNL1        0.0019
      9 C          62.5827   95.8702   -1.7990 C.3     1  UNL1        0.0019
     10 C          62.4043   93.5811   -1.8976 C.3     1  UNL1        0.0866
     11 C          62.8322   93.8348   -3.3127 C.2     1  UNL1        0.2258
     12 O          64.2879   93.8044   -3.6731 O.2     1  UNL1       -0.2749
     13 N          61.8042   94.1190   -4.3675 N.am    1  UNL1       -0.2767
     14 C          62.2319   94.3727   -5.7826 C.3     1  UNL1        0.1107
     15 C          61.2039   94.6569   -6.8374 C.3     1  UNL1        0.0939
     16 N          59.7482   94.6873   -6.4770 N.3     1  UNL1       -0.2709
     17 C          58.7202   94.9715   -7.5317 C.3     1  UNL1        0.0722
     18 C          57.2644   95.0019   -7.1713 C.3     1  UNL1        0.0174
     19 C          56.8367   94.7482   -5.7562 C.3     1  UNL1        0.0029
     20 C          57.8647   94.4640   -4.7014 C.3     1  UNL1        0.0177
     21 C          59.3204   94.4336   -5.0619 C.3     1  UNL1        0.0774
     22 C          60.3484   94.1494   -4.0071 C.3     1  UNL1        0.1093
     23 S          59.7843   94.0520    0.2958 S.O2    1  UNL1        0.0632
     24 O          59.7025   92.7667   -0.4732 O.2     1  UNL1       -0.1528
     25 O          59.5836   95.2796    0.8204 O.2     1  UNL1       -0.1528
     26 C          58.5348   94.5352   -0.3790 C.ar    1  UNL1        0.1222
     27 C          58.3559   95.9960   -0.6691 C.ar    1  UNL1        0.0208
     28 C          57.1064   96.4791   -1.3439 C.ar    1  UNL1        0.0128
     29 C          56.0358   95.5015   -1.7286 C.ar    1  UNL1        0.0578
     30 CL         54.7864   95.9847   -2.4033 Cl      1  UNL1       -0.0822
     31 C          56.2147   94.0407   -1.4385 C.ar    1  UNL1        0.0128
     32 C          57.4642   93.5576   -0.7637 C.ar    1  UNL1        0.0208
     33 C          59.4249   92.4158    4.3159 C.3     1  UNL1        0.0015
     34 C          59.5994   92.4515    2.8265 C.3     1  UNL1        0.0177
@<TRIPOS>BOND
     1    33    34    1
     2     1    34    1
     3     1     2    1
     4     2     3    1
     5     3     4    1
     6     4     5    1
     7     5     7    1
     8     7    10    1
     9    10    11    1
    10    11    12    2
    11    11    13   am
    12    13    14    1
    13    14    15    1
    14    15    16    1
    15    16    17    1
    16    17    18    1
    17    18    19    1
    18    19    20    1
    19    21    20    1
    20    21    22    1
    21     7     8    1
    22     8     9    1
    23     5     6    1
    24     6    23    1
    25    23    24    2
    26    23    25    2
    27    23    26    1
    28    26    27   ar
    29    27    28   ar
    30    28    29   ar
    31    29    30    1
    32    29    31   ar
    33    31    32   ar
    34     6     1    1
    35    32    26   ar
    36     9     7    1
    37    22    13    1
    38    21    16    1
@<TRIPOS>MOLECULE
*****
 34 38 0 0 0
SMALL
GASTEIGER

@<TRIPOS>ATOM
      1 C          62.0668   92.3283    2.5979 C.3     1  UNL1        0.0795
      2 C          61.2211   91.7717    3.7047 C.3     1  UNL1        0.0178
      3 C          59.7824   92.1780    3.8264 C.3     1  UNL1        0.0029
      4 C          59.1892   93.1411    2.8411 C.3     1  UNL1        0.0178
      5 C          60.0348   93.6977    1.7343 C.3     1  UNL1        0.0799
      6 N          61.4736   93.2914    1.6127 N.3     1  UNL1       -0.1583
      7 C          59.4416   94.6608    0.7491 C.3     1  UNL1        0.0237
      8 C          59.9624   95.9538    1.3030 C.3     1  UNL1        0.0019
      9 C          59.1009   95.9568    0.0750 C.3     1  UNL1        0.0019
     10 C          58.7149   93.7022   -0.1470 C.3     1  UNL1        0.0866
     11 C          58.7201   93.9130   -1.6321 C.2     1  UNL1        0.2258
     12 O          59.9533   93.6057   -2.4290 O.2     1  UNL1       -0.2749
     13 N          57.4921   94.4310   -2.3204 N.am    1  UNL1       -0.2767
     14 C          57.4973   94.6418   -3.8055 C.3     1  UNL1        0.1107
     15 C          56.2693   95.1598   -4.4938 C.3     1  UNL1        0.0939
     16 N          55.0362   95.4670   -3.6970 N.3     1  UNL1       -0.2709
     17 C          53.8082   95.9850   -4.3853 C.3     1  UNL1        0.0722
     18 C          52.5750   96.2923   -3.5885 C.3     1  UNL1        0.0174
     19 C          52.5699   96.0815   -2.1034 C.3     1  UNL1        0.0029
     20 C          53.7979   95.5635   -1.4151 C.3     1  UNL1        0.0177
     21 C          55.0310   95.2562   -2.2119 C.3     1  UNL1        0.0774
     22 C          56.2590   94.7382   -1.5236 C.3     1  UNL1        0.1093
     23 S          62.3192   93.8481    0.5059 S.O2    1  UNL1        0.0632
     24 O          62.7897   94.9435    1.4162 O.2     1  UNL1       -0.1528
     25 O          62.0925   93.0126   -0.5301 O.2     1  UNL1       -0.1528
     26 C          63.1649   94.4047   -0.6009 C.ar    1  UNL1        0.1222
     27 C          63.8883   95.7049   -0.4107 C.ar    1  UNL1        0.0208
     28 C          64.7340   96.2616   -1.5175 C.ar    1  UNL1        0.0128
     29 C          64.8562   95.5181   -2.8145 C.ar    1  UNL1        0.0578
     30 CL         65.7018   96.0748   -3.9212 Cl      1  UNL1       -0.0822
     31 C          64.1327   94.2179   -3.0047 C.ar    1  UNL1        0.0128
     32 C          63.2871   93.6612   -1.8979 C.ar    1  UNL1        0.0208
     33 C          63.9932   90.6768    3.1561 C.3     1  UNL1        0.0015
     34 C          63.5055   91.9219    2.4764 C.3     1  UNL1        0.0177
@<TRIPOS>BOND
     1    33    34    1
     2     1    34    1
     3     1     2    1
     4     2     3    1
     5     3     4    1
     6     4     5    1
     7     5     7    1
     8     7    10    1
     9    10    11    1
    10    11    12    2
    11    11    13   am
    12    13    14    1
    13    14    15    1
    14    15    16    1
    15    16    17    1
    16    17    18    1
    17    18    19    1
    18    19    20    1
    19    21    20    1
    20    21    22    1
    21     7     8    1
    22     8     9    1
    23     5     6    1
    24     6    23    1
    25    23    24    2
    26    23    25    2
    27    23    26    1
    28    26    27   ar
    29    27    28   ar
    30    28    29   ar
    31    29    30    1
    32    29    31   ar
    33    31    32   ar
    34     6     1    1
    35    32    26   ar
    36     9     7    1
    37    22    13    1
    38    21    16    1
@<TRIPOS>MOLECULE
*****
 34 38 0 0 0
SMALL
GASTEIGER

@<TRIPOS>ATOM
      1 C          62.1214   93.1280    1.0115 C.3     1  UNL1        0.0795
      2 C          61.2595   92.7250    2.1711 C.3     1  UNL1        0.0178
      3 C          59.7753   92.9334    2.1106 C.3     1  UNL1        0.0029
      4 C          59.1529   93.5447    0.8904 C.3     1  UNL1        0.0178
      5 C          60.0148   93.9476   -0.2693 C.3     1  UNL1        0.0799
      6 N          61.4990   93.7393   -0.2088 N.3     1  UNL1       -0.1583
      7 C          59.3924   94.5589   -1.4896 C.3     1  UNL1        0.0237
      8 C          59.2366   95.9752   -1.0207 C.3     1  UNL1        0.0019
      9 C          58.7910   95.5883   -2.3998 C.3     1  UNL1        0.0019
     10 C          59.3321   93.3549   -2.3822 C.3     1  UNL1        0.0866
     11 C          58.9551   93.5097   -3.8257 C.2     1  UNL1        0.2258
     12 O          59.6888   94.4906   -4.6915 O.2     1  UNL1       -0.2749
     13 N          57.8444   92.6835   -4.4036 N.am    1  UNL1       -0.2767
     14 C          57.4674   92.8383   -5.8471 C.3     1  UNL1        0.1107
     15 C          56.3567   92.0121   -6.4250 C.3     1  UNL1        0.0939
     16 N          55.6230   91.0312   -5.5592 N.3     1  UNL1       -0.2709
     17 C          54.5123   90.2051   -6.1370 C.3     1  UNL1        0.0722
     18 C          53.7786   89.2242   -5.2712 C.3     1  UNL1        0.0174
     19 C          54.1556   89.0695   -3.8277 C.3     1  UNL1        0.0029
     20 C          55.2663   89.8956   -3.2498 C.3     1  UNL1        0.0177
     21 C          56.0000   90.8765   -4.1156 C.3     1  UNL1        0.0774
     22 C          57.1107   91.7027   -3.5378 C.3     1  UNL1        0.1093
     23 S          62.3609   94.1422   -1.3684 S.O2    1  UNL1        0.0632
     24 O          62.5050   95.5161   -0.7839 O.2     1  UNL1       -0.1528
     25 O          62.4227   93.0302   -2.1314 O.2     1  UNL1       -0.1528
     26 C          63.2228   94.5452   -2.5281 C.ar    1  UNL1        0.1222
     27 C          63.1643   93.7700   -3.8110 C.ar    1  UNL1        0.0208
     28 C          64.0262   94.1730   -4.9706 C.ar    1  UNL1        0.0128
     29 C          64.9465   95.3510   -4.8474 C.ar    1  UNL1        0.0578
     30 CL         65.8084   95.7539   -6.0071 Cl      1  UNL1       -0.0822
     31 C          65.0049   96.1262   -3.5645 C.ar    1  UNL1        0.0128
     32 C          64.1431   95.7232   -2.4049 C.ar    1  UNL1        0.0208
     33 C          64.4831   93.9563    1.7088 C.3     1  UNL1        0.0015
     34 C          63.6056   92.9196    1.0721 C.3     1  UNL1        0.0177
@<TRIPOS>BOND
     1    33    34    1
     2     1    34    1
     3     1     2    1
     4     2     3    1
     5     3     4    1
     6     4     5    1
     7     5     7    1
     8     7    10    1
     9    10    11    1
    10    11    12    2
    11    11    13   am
    12    13    14    1
    13    14    15    1
    14    15    16    1
    15    16    17    1
    16    17    18    1
    17    18    19    1
    18    19    20    1
    19    21    20    1
    20    21    22    1
    21     7     8    1
    22     8     9    1
    23     5     6    1
    24     6    23    1
    25    23    24    2
    26    23    25    2
    27    23    26    1
    28    26    27   ar
    29    27    28   ar
    30    28    29   ar
    31    29    30    1
    32    29    31   ar
    33    31    32   ar
    34     6     1    1
    35    32    26   ar
    36     9     7    1
    37    22    13    1
    38    21    16    1
@<TRIPOS>MOLECULE
*****
 34 38 0 0 0
SMALL
GASTEIGER

@<TRIPOS>ATOM
      1 C          62.8866   94.8358    0.5163 C.3     1  UNL1        0.0795
      2 C          64.2440   95.4084    0.7984 C.3     1  UNL1        0.0178
      3 C          65.1469   95.7920   -0.3363 C.3     1  UNL1        0.0029
      4 C          64.6923   95.6031   -1.7533 C.3     1  UNL1        0.0178
      5 C          63.3348   95.0305   -2.0354 C.3     1  UNL1        0.0799
      6 N          62.4320   94.6469   -0.9006 N.3     1  UNL1       -0.1583
      7 C          62.8802   94.8416   -3.4523 C.3     1  UNL1        0.0237
      8 C          63.2789   93.4113   -3.6652 C.3     1  UNL1        0.0019
      9 C          62.6189   94.1787   -4.7723 C.3     1  UNL1        0.0019
     10 C          62.3237   96.2063   -3.7315 C.3     1  UNL1        0.0866
     11 C          61.7523   96.5213   -5.0821 C.2     1  UNL1        0.2258
     12 O          62.6660   96.8560   -6.2237 O.2     1  UNL1       -0.2749
     13 N          60.2670   96.5015   -5.2913 N.am    1  UNL1       -0.2767
     14 C          59.6955   96.8164   -6.6419 C.3     1  UNL1        0.1107
     15 C          58.2103   96.7967   -6.8510 C.3     1  UNL1        0.0939
     16 N          57.2966   96.4619   -5.7094 N.3     1  UNL1       -0.2709
     17 C          55.8113   96.4422   -5.9186 C.3     1  UNL1        0.0722
     18 C          54.8976   96.1074   -4.7770 C.3     1  UNL1        0.0174
     19 C          55.4691   95.7925   -3.4265 C.3     1  UNL1        0.0029
     20 C          56.9544   95.8123   -3.2173 C.3     1  UNL1        0.0177
     21 C          57.8681   96.1470   -4.3589 C.3     1  UNL1        0.0774
     22 C          59.3533   96.1668   -4.1497 C.3     1  UNL1        0.1093
     23 S          61.0745   94.0744   -1.1827 S.O2    1  UNL1        0.0632
     24 O          60.4837   95.4523   -1.1364 O.2     1  UNL1       -0.1528
     25 O          61.2950   92.7464   -1.2846 O.2     1  UNL1       -0.1528
     26 C          59.7171   93.5018   -1.4648 C.ar    1  UNL1        0.1222
     27 C          58.6762   93.4730   -0.3851 C.ar    1  UNL1        0.0208
     28 C          57.3187   92.9004   -0.6672 C.ar    1  UNL1        0.0128
     29 C          57.0022   92.3568   -2.0289 C.ar    1  UNL1        0.0578
     30 CL         55.6448   91.7842   -2.3110 Cl      1  UNL1       -0.0822
     31 C          58.0432   92.3857   -3.1086 C.ar    1  UNL1        0.0128
     32 C          59.4006   92.9582   -2.8265 C.ar    1  UNL1        0.0208
     33 C          61.9802   93.0423    2.1631 C.3     1  UNL1        0.0015
     34 C          61.9838   94.4522    1.6511 C.3     1  UNL1        0.0177
@<TRIPOS>BOND
     1    33    34    1
     2     1    34    1
     3     1     2    1
     4     2     3    1
     5     3     4    1
     6     4     5    1
     7     5     7    1
     8     7    10    1
     9    10    11    1
    10    11    12    2
    11    11    13   am
    12    13    14    1
    13    14    15    1
    14    15    16    1
    15    16    17    1
    16    17    18    1
    17    18    19    1
    18    19    20    1
    19    21    20    1
    20    21    22    1
    21     7     8    1
    22     8     9    1
    23     5     6    1
    24     6    23    1
    25    23    24    2
    26    23    25    2
    27    23    26    1
    28    26    27   ar
    29    27    28   ar
    30    28    29   ar
    31    29    30    1
    32    29    31   ar
    33    31    32   ar
    34     6     1    1
    35    32    26   ar
    36     9     7    1
    37    22    13    1
    38    21    16    1
