@<TRIPOS>MOLECULE
*****
 36 40 0 0 0
SMALL
GASTEIGER

@<TRIPOS>ATOM
      1 N          65.4614   92.8006   11.8683 N.ar    1  UNL1       -0.2757
      2 C          66.3355   93.5268   12.8475 C.ar    1  UNL1        0.3342
      3 O          67.2028   94.6589   12.3827 O.2     1  UNL1       -0.2462
      4 N          66.3423   93.1207   14.2915 N.ar    1  UNL1       -0.2467
      5 C          67.2164   93.8469   15.2706 C.3     1  UNL1        0.1382
      6 C          65.4750   91.9886   14.7563 C.ar    1  UNL1        0.2663
      7 O          65.4818   91.5826   16.2003 O.2     1  UNL1       -0.2668
      8 C          64.6009   91.2625   13.7772 C.ar    1  UNL1        0.0829
      9 C          63.6469   90.1167   13.9410 C.ar    1  UNL1        0.0624
     10 C          63.0504   89.8145   12.5983 C.ar    1  UNL1        0.0176
     11 S          63.6358   90.7736   11.6046 S.2     1  UNL1       -0.0734
     12 C          64.5941   91.6685   12.3332 C.ar    1  UNL1        0.0982
     13 C          63.3427   89.3990   15.2226 C.2     1  UNL1        0.2495
     14 O          62.6779   90.1294   16.3516 O.2     1  UNL1       -0.2699
     15 N          63.7032   87.9510   15.3751 N.am    1  UNL1       -0.2735
     16 C          63.4626   87.1058   16.5907 C.3     1  UNL1        0.0964
     17 C          63.9783   85.7264   16.3057 C.3     1  UNL1        0.0525
     18 C          64.5377   85.7191   14.9139 C.3     1  UNL1        0.1320
     19 O          65.1582   84.5433   14.2192 O.3     1  UNL1       -0.3827
     20 C          64.3677   87.0940   14.3388 C.3     1  UNL1        0.1228
     21 H          65.4387   84.8052   13.3283 H       1  UNL1        0.2104
     22 C          65.4546   93.2066   10.4244 C.3     1  UNL1        0.1109
     23 C          67.0127   94.6382    8.9166 C.3     1  UNL1        0.0020
     24 C          66.7498   93.3785    9.6875 C.3     1  UNL1        0.0228
     25 C          67.7821   92.2908    9.7215 C.3     1  UNL1        0.0020
     26 C          62.0450   88.7417   12.3013 C.3     1  UNL1        0.0610
     27 C          61.3338   88.7251   10.9808 C.ar    1  UNL1        0.0019
     28 C          60.4281   89.8593   10.6024 C.ar    1  UNL1        0.0949
     29 N          59.7169   89.8427    9.2818 N.ar    1  UNL1       -0.2426
     30 C          59.9113   88.6919    8.3397 C.ar    1  UNL1        0.0988
     31 C          60.8170   87.5576    8.7180 C.ar    1  UNL1        0.0189
     32 C          61.0114   86.4067    7.7759 C.ar    1  UNL1        0.0015
     33 C          61.9171   85.2725    8.1542 C.ar    1  UNL1        0.0000
     34 C          62.6284   85.2891    9.4748 C.ar    1  UNL1       -0.0000
     35 C          62.4339   86.4399   10.4170 C.ar    1  UNL1       -0.0002
     36 C          61.5283   87.5742   10.0386 C.ar    1  UNL1       -0.0006
@<TRIPOS>BOND
     1    23    24    1
     2    24    25    1
     3    24    22    1
     4    22     1    1
     5     1     2   ar
     6     2     3    2
     7     2     4   ar
     8     4     5    1
     9     4     6   ar
    10     6     7    2
    11     6     8   ar
    12     8     9   ar
    13     9    13    1
    14    13    14    2
    15    13    15   am
    16    15    16    1
    17    16    17    1
    18    17    18    1
    19    18    19    1
    20    18    20    1
    21     9    10   ar
    22    10    26    1
    23    26    27    1
    24    27    28   ar
    25    28    29   ar
    26    29    30   ar
    27    30    31   ar
    28    31    32   ar
    29    32    33   ar
    30    33    34   ar
    31    34    35   ar
    32    35    36   ar
    33    10    11   ar
    34    11    12   ar
    35    12     1   ar
    36    12     8   ar
    37    20    15    1
    38    36    27   ar
    39    36    31   ar
    40    19    21    1
@<TRIPOS>MOLECULE
*****
 36 40 0 0 0
SMALL
GASTEIGER

@<TRIPOS>ATOM
      1 N          61.3136   87.8093   10.1213 N.ar    1  UNL1       -0.2757
      2 C          60.9071   87.3647    8.7475 C.ar    1  UNL1        0.3342
      3 O          60.1169   88.2846    7.8647 O.2     1  UNL1       -0.2462
      4 N          61.2908   86.0003    8.2566 N.ar    1  UNL1       -0.2467
      5 C          60.8844   85.5558    6.8829 C.3     1  UNL1        0.1382
      6 C          62.0810   85.0804    9.1395 C.ar    1  UNL1        0.2663
      7 O          62.4647   83.7159    8.6486 O.2     1  UNL1       -0.2668
      8 C          62.4875   85.5249   10.5132 C.ar    1  UNL1        0.0829
      9 C          63.2631   84.8422   11.6005 C.ar    1  UNL1        0.0624
     10 C          63.3588   85.7848   12.7635 C.ar    1  UNL1        0.0176
     11 S          62.6423   87.0500   12.3949 S.2     1  UNL1       -0.0734
     12 C          62.1038   86.8894   11.0042 C.ar    1  UNL1        0.0982
     13 C          63.8415   83.4597   11.5362 C.2     1  UNL1        0.2495
     14 O          65.0655   83.1966   10.7101 O.2     1  UNL1       -0.2699
     15 N          63.1959   82.3404   12.2980 N.am    1  UNL1       -0.2735
     16 C          63.6583   80.9139   12.3299 C.3     1  UNL1        0.0964
     17 C          62.7228   80.1430   13.2133 C.3     1  UNL1        0.0525
     18 C          61.6821   81.0931   13.7274 C.3     1  UNL1        0.1320
     19 O          60.5481   80.7461   14.6460 O.3     1  UNL1       -0.3827
     20 C          61.9746   82.4512   13.1617 C.3     1  UNL1        0.1228
     21 H          60.0218   81.5410   14.8245 H       1  UNL1        0.2104
     22 C          60.9299   89.1737   10.6122 C.3     1  UNL1        0.1109
     23 C          62.2253   90.6255   12.3340 C.3     1  UNL1        0.0020
     24 C          61.9927   90.1870   10.9184 C.3     1  UNL1        0.0228
     25 C          62.8229   90.7616    9.8092 C.3     1  UNL1        0.0020
     26 C          64.0496   85.5103   14.0663 C.3     1  UNL1        0.0610
     27 C          63.5345   86.1271   15.3329 C.ar    1  UNL1        0.0019
     28 C          62.8775   85.2679   16.3722 C.ar    1  UNL1        0.0949
     29 N          62.3623   85.8846   17.6388 N.ar    1  UNL1       -0.2426
     30 C          62.5042   87.3605   17.8661 C.ar    1  UNL1        0.0988
     31 C          63.1613   88.2197   16.8268 C.ar    1  UNL1        0.0189
     32 C          63.3031   89.6955   17.0541 C.ar    1  UNL1        0.0015
     33 C          63.9601   90.5547   16.0148 C.ar    1  UNL1        0.0000
     34 C          64.4753   89.9379   14.7482 C.ar    1  UNL1       -0.0000
     35 C          64.3334   88.4621   14.5209 C.ar    1  UNL1       -0.0002
     36 C          63.6764   87.6030   15.5602 C.ar    1  UNL1       -0.0006
@<TRIPOS>BOND
     1    23    24    1
     2    24    25    1
     3    24    22    1
     4    22     1    1
     5     1     2   ar
     6     2     3    2
     7     2     4   ar
     8     4     5    1
     9     4     6   ar
    10     6     7    2
    11     6     8   ar
    12     8     9   ar
    13     9    13    1
    14    13    14    2
    15    13    15   am
    16    15    16    1
    17    16    17    1
    18    17    18    1
    19    18    19    1
    20    18    20    1
    21     9    10   ar
    22    10    26    1
    23    26    27    1
    24    27    28   ar
    25    28    29   ar
    26    29    30   ar
    27    30    31   ar
    28    31    32   ar
    29    32    33   ar
    30    33    34   ar
    31    34    35   ar
    32    35    36   ar
    33    10    11   ar
    34    11    12   ar
    35    12     1   ar
    36    12     8   ar
    37    20    15    1
    38    36    27   ar
    39    36    31   ar
    40    19    21    1
@<TRIPOS>MOLECULE
*****
 36 40 0 0 0
SMALL
GASTEIGER

@<TRIPOS>ATOM
      1 N          62.9208   88.2122   11.4376 N.ar    1  UNL1       -0.2757
      2 C          62.7190   87.0738   12.3934 C.ar    1  UNL1        0.3342
      3 O          62.0708   85.8055   11.9231 O.2     1  UNL1       -0.2462
      4 N          63.1654   87.2039   13.8195 N.ar    1  UNL1       -0.2467
      5 C          62.9635   86.0656   14.7753 C.3     1  UNL1        0.1382
      6 C          63.8135   88.4722   14.2899 C.ar    1  UNL1        0.2663
      7 O          64.2599   88.6022   15.7160 O.2     1  UNL1       -0.2668
      8 C          64.0154   89.6105   13.3341 C.ar    1  UNL1        0.0829
      9 C          64.6200   90.9721   13.5082 C.ar    1  UNL1        0.0624
     10 C          64.5474   91.6836   12.1897 C.ar    1  UNL1        0.0176
     11 S          63.8978   90.7618   11.2007 S.2     1  UNL1       -0.0734
     12 C          63.5690   89.4805   11.9079 C.ar    1  UNL1        0.0982
     13 C          65.1962   91.5251   14.7779 C.2     1  UNL1        0.2495
     14 O          64.3080   91.7641   15.9628 O.2     1  UNL1       -0.2699
     15 N          66.6605   91.8391   14.8628 N.am    1  UNL1       -0.2735
     16 C          67.3755   92.3936   16.0591 C.3     1  UNL1        0.0964
     17 C          68.8237   92.5509   15.7018 C.3     1  UNL1        0.0525
     18 C          69.0039   92.0937   14.2846 C.3     1  UNL1        0.1320
     19 O          70.2945   92.0789   13.5202 O.3     1  UNL1       -0.3827
     20 C          67.6669   91.6537   13.7660 C.3     1  UNL1        0.1228
     21 H          70.1367   91.7376   12.6260 H       1  UNL1        0.2104
     22 C          62.4745   88.0821   10.0115 C.3     1  UNL1        0.1109
     23 C          60.4521   89.6492    9.5594 C.3     1  UNL1        0.0020
     24 C          61.0286   88.2679    9.6582 C.3     1  UNL1        0.0228
     25 C          60.1591   87.0724    9.4039 C.3     1  UNL1        0.0020
     26 C          65.0381   93.0731   11.9094 C.3     1  UNL1        0.0610
     27 C          66.2180   93.2841   11.0076 C.ar    1  UNL1        0.0019
     28 C          67.3556   92.3066   11.0198 C.ar    1  UNL1        0.0949
     29 N          68.5355   92.5176   10.1179 N.ar    1  UNL1       -0.2426
     30 C          68.5778   93.7062    9.2039 C.ar    1  UNL1        0.0988
     31 C          67.4402   94.6838    9.1917 C.ar    1  UNL1        0.0189
     32 C          67.4825   95.8724    8.2777 C.ar    1  UNL1        0.0015
     33 C          66.3448   96.8499    8.2655 C.ar    1  UNL1        0.0000
     34 C          65.1649   96.6389    9.1674 C.ar    1  UNL1       -0.0000
     35 C          65.1226   95.4503   10.0814 C.ar    1  UNL1       -0.0002
     36 C          66.2603   94.4728   10.0935 C.ar    1  UNL1       -0.0006
@<TRIPOS>BOND
     1    23    24    1
     2    24    25    1
     3    24    22    1
     4    22     1    1
     5     1     2   ar
     6     2     3    2
     7     2     4   ar
     8     4     5    1
     9     4     6   ar
    10     6     7    2
    11     6     8   ar
    12     8     9   ar
    13     9    13    1
    14    13    14    2
    15    13    15   am
    16    15    16    1
    17    16    17    1
    18    17    18    1
    19    18    19    1
    20    18    20    1
    21     9    10   ar
    22    10    26    1
    23    26    27    1
    24    27    28   ar
    25    28    29   ar
    26    29    30   ar
    27    30    31   ar
    28    31    32   ar
    29    32    33   ar
    30    33    34   ar
    31    34    35   ar
    32    35    36   ar
    33    10    11   ar
    34    11    12   ar
    35    12     1   ar
    36    12     8   ar
    37    20    15    1
    38    36    27   ar
    39    36    31   ar
    40    19    21    1
@<TRIPOS>MOLECULE
*****
 36 40 0 0 0
SMALL
GASTEIGER

@<TRIPOS>ATOM
      1 N          63.5947   95.2002   -2.8942 N.ar    1  UNL1       -0.2757
      2 C          64.6267   95.9120   -2.0703 C.ar    1  UNL1        0.3342
      3 O          65.7925   96.5772   -2.7399 O.2     1  UNL1       -0.2462
      4 N          64.4927   95.9584   -0.5771 N.ar    1  UNL1       -0.2467
      5 C          65.5247   96.6701    0.2466 C.3     1  UNL1        0.1382
      6 C          63.3269   95.2932    0.0924 C.ar    1  UNL1        0.2663
      7 O          63.1930   95.3397    1.5857 O.2     1  UNL1       -0.2668
      8 C          62.2950   94.5815   -0.7313 C.ar    1  UNL1        0.0829
      9 C          61.0468   93.8398   -0.3546 C.ar    1  UNL1        0.0624
     10 C          60.4093   93.3349   -1.6150 C.ar    1  UNL1        0.0176
     11 S          61.2635   93.7646   -2.7707 S.2     1  UNL1       -0.0734
     12 C          62.4289   94.5350   -2.2246 C.ar    1  UNL1        0.0982
     13 C          60.5273   93.6384    1.0381 C.2     1  UNL1        0.2495
     14 O          59.2391   94.2815    1.4584 O.2     1  UNL1       -0.2699
     15 N          61.2962   92.7938    2.0105 N.am    1  UNL1       -0.2735
     16 C          60.9038   92.5036    3.4288 C.3     1  UNL1        0.0964
     17 C          61.9574   91.6216    4.0302 C.3     1  UNL1        0.0525
     18 C          63.0012   91.3666    2.9835 C.3     1  UNL1        0.1320
     19 O          64.2367   90.5333    3.1549 O.3     1  UNL1       -0.3827
     20 C          62.5925   92.0910    1.7352 C.3     1  UNL1        0.1228
     21 H          64.7423   90.5306    2.3271 H       1  UNL1        0.2104
     22 C          63.7287   95.1537   -4.3874 C.3     1  UNL1        0.1109
     23 C          65.5638   94.5380   -6.1204 C.3     1  UNL1        0.0020
     24 C          64.6185   94.1308   -5.0291 C.3     1  UNL1        0.0228
     25 C          64.5630   92.7008   -4.5797 C.3     1  UNL1        0.0020
     26 C          59.1404   92.5399   -1.7041 C.3     1  UNL1        0.0610
     27 C          58.1096   92.8860   -2.7373 C.ar    1  UNL1        0.0019
     28 C          57.9240   92.0040   -3.9363 C.ar    1  UNL1        0.0949
     29 N          56.8932   92.3500   -4.9696 N.ar    1  UNL1       -0.2426
     30 C          56.0478   93.5780   -4.8038 C.ar    1  UNL1        0.0988
     31 C          56.2333   94.4600   -3.6047 C.ar    1  UNL1        0.0189
     32 C          55.3880   95.6879   -3.4389 C.ar    1  UNL1        0.0015
     33 C          55.5735   96.5698   -2.2399 C.ar    1  UNL1        0.0000
     34 C          56.6044   96.2238   -1.2066 C.ar    1  UNL1       -0.0000
     35 C          57.4498   94.9959   -1.3724 C.ar    1  UNL1       -0.0002
     36 C          57.2642   94.1140   -2.5715 C.ar    1  UNL1       -0.0006
@<TRIPOS>BOND
     1    23    24    1
     2    24    25    1
     3    24    22    1
     4    22     1    1
     5     1     2   ar
     6     2     3    2
     7     2     4   ar
     8     4     5    1
     9     4     6   ar
    10     6     7    2
    11     6     8   ar
    12     8     9   ar
    13     9    13    1
    14    13    14    2
    15    13    15   am
    16    15    16    1
    17    16    17    1
    18    17    18    1
    19    18    19    1
    20    18    20    1
    21     9    10   ar
    22    10    26    1
    23    26    27    1
    24    27    28   ar
    25    28    29   ar
    26    29    30   ar
    27    30    31   ar
    28    31    32   ar
    29    32    33   ar
    30    33    34   ar
    31    34    35   ar
    32    35    36   ar
    33    10    11   ar
    34    11    12   ar
    35    12     1   ar
    36    12     8   ar
    37    20    15    1
    38    36    27   ar
    39    36    31   ar
    40    19    21    1
@<TRIPOS>MOLECULE
*****
 36 40 0 0 0
SMALL
GASTEIGER

@<TRIPOS>ATOM
      1 N          63.7313   95.2142   -2.8280 N.ar    1  UNL1       -0.2757
      2 C          64.8031   95.8627   -2.0029 C.ar    1  UNL1        0.3342
      3 O          65.9903   96.4883   -2.6733 O.2     1  UNL1       -0.2462
      4 N          64.6877   95.8858   -0.5076 N.ar    1  UNL1       -0.2467
      5 C          65.7595   96.5343    0.3174 C.3     1  UNL1        0.1382
      6 C          63.5006   95.2603    0.1628 C.ar    1  UNL1        0.2663
      7 O          63.3852   95.2833    1.6581 O.2     1  UNL1       -0.2668
      8 C          62.4288   94.6117   -0.6622 C.ar    1  UNL1        0.0829
      9 C          61.1528   93.9193   -0.2851 C.ar    1  UNL1        0.0624
     10 C          60.4795   93.4683   -1.5474 C.ar    1  UNL1        0.0176
     11 S          61.3394   93.8820   -2.7047 S.2     1  UNL1       -0.0734
     12 C          62.5442   94.5887   -2.1577 C.ar    1  UNL1        0.0982
     13 C          60.6401   93.7139    1.1095 C.2     1  UNL1        0.2495
     14 O          59.3795   94.3952    1.5531 O.2     1  UNL1       -0.2699
     15 N          61.3879   92.8272    2.0606 N.am    1  UNL1       -0.2735
     16 C          60.9992   92.5282    3.4781 C.3     1  UNL1        0.0964
     17 C          62.0268   91.6001    4.0546 C.3     1  UNL1        0.0525
     18 C          63.0506   91.3253    2.9934 C.3     1  UNL1        0.1320
     19 O          64.2575   90.4464    3.1390 O.3     1  UNL1       -0.3827
     20 C          62.6558   92.0837    1.7610 C.3     1  UNL1        0.1228
     21 H          64.7546   90.4392    2.3061 H       1  UNL1        0.2104
     22 C          63.8467   95.1912   -4.3234 C.3     1  UNL1        0.1109
     23 C          64.6214   92.7118   -4.3754 C.3     1  UNL1        0.0020
     24 C          64.5833   94.0743   -5.0017 C.3     1  UNL1        0.0228
     25 C          65.2818   94.3200   -6.3061 C.3     1  UNL1        0.0020
     26 C          59.1753   92.7327   -1.6367 C.3     1  UNL1        0.0610
     27 C          57.9238   93.4682   -2.0145 C.ar    1  UNL1        0.0019
     28 C          57.3173   94.4552   -1.0617 C.ar    1  UNL1        0.0949
     29 N          56.0658   95.1907   -1.4396 N.ar    1  UNL1       -0.2426
     30 C          55.4207   94.9391   -2.7702 C.ar    1  UNL1        0.0988
     31 C          56.0272   93.9519   -3.7230 C.ar    1  UNL1        0.0189
     32 C          55.3822   93.7003   -5.0536 C.ar    1  UNL1        0.0015
     33 C          55.9887   92.7133   -6.0064 C.ar    1  UNL1        0.0000
     34 C          57.2402   91.9778   -5.6286 C.ar    1  UNL1       -0.0000
     35 C          57.8852   92.2294   -4.2980 C.ar    1  UNL1       -0.0002
     36 C          57.2788   93.2165   -3.3452 C.ar    1  UNL1       -0.0006
@<TRIPOS>BOND
     1    23    24    1
     2    24    25    1
     3    24    22    1
     4    22     1    1
     5     1     2   ar
     6     2     3    2
     7     2     4   ar
     8     4     5    1
     9     4     6   ar
    10     6     7    2
    11     6     8   ar
    12     8     9   ar
    13     9    13    1
    14    13    14    2
    15    13    15   am
    16    15    16    1
    17    16    17    1
    18    17    18    1
    19    18    19    1
    20    18    20    1
    21     9    10   ar
    22    10    26    1
    23    26    27    1
    24    27    28   ar
    25    28    29   ar
    26    29    30   ar
    27    30    31   ar
    28    31    32   ar
    29    32    33   ar
    30    33    34   ar
    31    34    35   ar
    32    35    36   ar
    33    10    11   ar
    34    11    12   ar
    35    12     1   ar
    36    12     8   ar
    37    20    15    1
    38    36    27   ar
    39    36    31   ar
    40    19    21    1
@<TRIPOS>MOLECULE
*****
 36 40 0 0 0
SMALL
GASTEIGER

@<TRIPOS>ATOM
      1 N          62.9989   89.1885   11.1207 N.ar    1  UNL1       -0.2757
      2 C          62.8258   87.8972   11.8642 C.ar    1  UNL1        0.3342
      3 O          62.1259   86.7430   11.2099 O.2     1  UNL1       -0.2462
      4 N          63.3525   87.7602   13.2619 N.ar    1  UNL1       -0.2467
      5 C          63.1794   86.4690   14.0054 C.3     1  UNL1        0.1382
      6 C          64.0524   88.9144   13.9162 C.ar    1  UNL1        0.2663
      7 O          64.5791   88.7774   15.3140 O.2     1  UNL1       -0.2668
      8 C          64.2255   90.2056   13.1727 C.ar    1  UNL1        0.0829
      9 C          64.8675   91.5060   13.5556 C.ar    1  UNL1        0.0624
     10 C          64.7376   92.4468   12.3945 C.ar    1  UNL1        0.0176
     11 S          64.0152   91.7278   11.2940 S.2     1  UNL1       -0.0734
     12 C          63.6987   90.3427   11.7749 C.ar    1  UNL1        0.0982
     13 C          65.5242   91.8120   14.8691 C.2     1  UNL1        0.2495
     14 O          64.6941   91.9320   16.1127 O.2     1  UNL1       -0.2699
     15 N          67.0110   91.9979   14.9389 N.am    1  UNL1       -0.2735
     16 C          67.8040   92.3062   16.1742 C.3     1  UNL1        0.0964
     17 C          69.2489   92.4070   15.7845 C.3     1  UNL1        0.0525
     18 C          69.3490   92.1611   14.3082 C.3     1  UNL1        0.1320
     19 O          70.6107   92.1670   13.4969 O.3     1  UNL1       -0.3827
     20 C          67.9659   91.9083   13.7856 C.3     1  UNL1        0.1228
     21 H          70.3992   91.9803   12.5688 H       1  UNL1        0.2104
     22 C          62.4721   89.3255    9.7229 C.3     1  UNL1        0.1109
     23 C          60.3513   88.7682    8.3295 C.3     1  UNL1        0.0020
     24 C          60.9976   89.4687    9.4878 C.3     1  UNL1        0.0228
     25 C          60.1694   90.3125   10.4108 C.3     1  UNL1        0.0020
     26 C          65.2416   93.8586   12.3430 C.3     1  UNL1        0.0610
     27 C          65.7499   94.4268   11.0512 C.ar    1  UNL1        0.0019
     28 C          65.2005   95.7234   10.5345 C.ar    1  UNL1        0.0949
     29 N          65.7088   96.2917    9.2427 N.ar    1  UNL1       -0.2426
     30 C          66.7664   95.5633    8.4676 C.ar    1  UNL1        0.0988
     31 C          67.3159   94.2666    8.9843 C.ar    1  UNL1        0.0189
     32 C          68.3735   93.5383    8.2091 C.ar    1  UNL1        0.0015
     33 C          68.9228   92.2417    8.7258 C.ar    1  UNL1        0.0000
     34 C          68.4145   91.6735   10.0176 C.ar    1  UNL1       -0.0000
     35 C          67.3569   92.4018   10.7927 C.ar    1  UNL1       -0.0002
     36 C          66.8076   93.6984   10.2761 C.ar    1  UNL1       -0.0006
@<TRIPOS>BOND
     1    23    24    1
     2    24    25    1
     3    24    22    1
     4    22     1    1
     5     1     2   ar
     6     2     3    2
     7     2     4   ar
     8     4     5    1
     9     4     6   ar
    10     6     7    2
    11     6     8   ar
    12     8     9   ar
    13     9    13    1
    14    13    14    2
    15    13    15   am
    16    15    16    1
    17    16    17    1
    18    17    18    1
    19    18    19    1
    20    18    20    1
    21     9    10   ar
    22    10    26    1
    23    26    27    1
    24    27    28   ar
    25    28    29   ar
    26    29    30   ar
    27    30    31   ar
    28    31    32   ar
    29    32    33   ar
    30    33    34   ar
    31    34    35   ar
    32    35    36   ar
    33    10    11   ar
    34    11    12   ar
    35    12     1   ar
    36    12     8   ar
    37    20    15    1
    38    36    27   ar
    39    36    31   ar
    40    19    21    1
@<TRIPOS>MOLECULE
*****
 36 40 0 0 0
SMALL
GASTEIGER

@<TRIPOS>ATOM
      1 N          63.3558   94.3402    0.1045 N.ar    1  UNL1       -0.2757
      2 C          63.1054   93.5238    1.3378 C.ar    1  UNL1        0.3342
      3 O          64.2588   93.0599    2.1770 O.2     1  UNL1       -0.2462
      4 N          61.7016   93.1715    1.7318 N.ar    1  UNL1       -0.2467
      5 C          61.4513   92.3552    2.9650 C.3     1  UNL1        0.1382
      6 C          60.5482   93.6354    0.8926 C.ar    1  UNL1        0.2663
      7 O          59.1445   93.2831    1.2866 O.2     1  UNL1       -0.2668
      8 C          60.7985   94.4517   -0.3407 C.ar    1  UNL1        0.0829
      9 C          59.8689   95.0459   -1.3569 C.ar    1  UNL1        0.0624
     10 C          60.6981   95.7654   -2.3791 C.ar    1  UNL1        0.0176
     11 S          62.1402   95.6160   -1.9945 S.2     1  UNL1       -0.0734
     12 C          62.2023   94.8041   -0.7348 C.ar    1  UNL1        0.0982
     13 C          58.3727   94.9391   -1.3519 C.2     1  UNL1        0.2495
     14 O          57.5522   95.9369   -0.5896 O.2     1  UNL1       -0.2699
     15 N          57.6970   93.8347   -2.1093 N.am    1  UNL1       -0.2735
     16 C          56.2178   93.6016   -2.1960 C.3     1  UNL1        0.0964
     17 C          55.9885   92.3923   -3.0532 C.3     1  UNL1        0.0525
     18 C          57.3261   91.8778   -3.4962 C.3     1  UNL1        0.1320
     19 O          57.5657   90.6818   -4.3693 O.3     1  UNL1       -0.3827
     20 C          58.3820   92.7692   -2.9128 C.3     1  UNL1        0.1228
     21 H          58.5192   90.5660   -4.5046 H       1  UNL1        0.2104
     22 C          64.7595   94.6925   -0.2895 C.3     1  UNL1        0.1109
     23 C          65.9882   96.8478   -1.0612 C.3     1  UNL1        0.0020
     24 C          65.3037   96.0569    0.0141 C.3     1  UNL1        0.0228
     25 C          65.1634   96.6306    1.3930 C.3     1  UNL1        0.0020
     26 C          60.1767   96.5046   -3.5756 C.3     1  UNL1        0.0610
     27 C          59.7174   95.7451   -4.7848 C.ar    1  UNL1        0.0019
     28 C          60.7113   94.9966   -5.6226 C.ar    1  UNL1        0.0949
     29 N          60.2519   94.2372   -6.8318 N.ar    1  UNL1       -0.2426
     30 C          58.7987   94.2261   -7.2033 C.ar    1  UNL1        0.0988
     31 C          57.8047   94.9746   -6.3654 C.ar    1  UNL1        0.0189
     32 C          56.3515   94.9636   -6.7369 C.ar    1  UNL1        0.0015
     33 C          55.3577   95.7121   -5.8991 C.ar    1  UNL1        0.0000
     34 C          55.8170   96.4715   -4.6898 C.ar    1  UNL1       -0.0000
     35 C          57.2702   96.4826   -4.3184 C.ar    1  UNL1       -0.0002
     36 C          58.2641   95.7341   -5.1562 C.ar    1  UNL1       -0.0006
@<TRIPOS>BOND
     1    23    24    1
     2    24    25    1
     3    24    22    1
     4    22     1    1
     5     1     2   ar
     6     2     3    2
     7     2     4   ar
     8     4     5    1
     9     4     6   ar
    10     6     7    2
    11     6     8   ar
    12     8     9   ar
    13     9    13    1
    14    13    14    2
    15    13    15   am
    16    15    16    1
    17    16    17    1
    18    17    18    1
    19    18    19    1
    20    18    20    1
    21     9    10   ar
    22    10    26    1
    23    26    27    1
    24    27    28   ar
    25    28    29   ar
    26    29    30   ar
    27    30    31   ar
    28    31    32   ar
    29    32    33   ar
    30    33    34   ar
    31    34    35   ar
    32    35    36   ar
    33    10    11   ar
    34    11    12   ar
    35    12     1   ar
    36    12     8   ar
    37    20    15    1
    38    36    27   ar
    39    36    31   ar
    40    19    21    1
@<TRIPOS>MOLECULE
*****
 36 40 0 0 0
SMALL
GASTEIGER

@<TRIPOS>ATOM
      1 N          63.5702   84.9840   12.6169 N.ar    1  UNL1       -0.2757
      2 C          63.5405   83.9964   11.4882 C.ar    1  UNL1        0.3342
      3 O          63.9185   82.5657   11.7334 O.2     1  UNL1       -0.2462
      4 N          63.1326   84.4395   10.1145 N.ar    1  UNL1       -0.2467
      5 C          63.1029   83.4519    8.9859 C.3     1  UNL1        0.1382
      6 C          62.7546   85.8702    9.8693 C.ar    1  UNL1        0.2663
      7 O          62.3467   86.3134    8.4956 O.2     1  UNL1       -0.2668
      8 C          62.7843   86.8578   10.9979 C.ar    1  UNL1        0.0829
      9 C          62.4670   88.3226   11.0585 C.ar    1  UNL1        0.0624
     10 C          62.6788   88.7848   12.4698 C.ar    1  UNL1        0.0176
     11 S          63.1269   87.6056   13.2814 S.2     1  UNL1       -0.0734
     12 C          63.1921   86.4147   12.3718 C.ar    1  UNL1        0.0982
     13 C          62.0170   89.1755    9.9096 C.2     1  UNL1        0.2495
     14 O          62.7216   90.4659    9.6125 O.2     1  UNL1       -0.2699
     15 N          60.8625   88.7379    9.0578 N.am    1  UNL1       -0.2735
     16 C          60.3027   89.4818    7.8817 C.3     1  UNL1        0.0964
     17 C          59.1593   88.6832    7.3296 C.3     1  UNL1        0.0525
     18 C          59.0123   87.4458    8.1645 C.3     1  UNL1        0.1320
     19 O          57.9919   86.3643    7.9662 O.3     1  UNL1       -0.3827
     20 C          60.0650   87.4795    9.2326 C.3     1  UNL1        0.1228
     21 H          58.1132   85.6777    8.6405 H       1  UNL1        0.2104
     22 C          63.9781   84.5408   13.9907 C.3     1  UNL1        0.1109
     23 C          62.3681   82.6645   14.7893 C.3     1  UNL1        0.0020
     24 C          62.9441   84.0397   14.9549 C.3     1  UNL1        0.0228
     25 C          62.4860   84.9136   16.0847 C.3     1  UNL1        0.0020
     26 C          62.4777   90.1809   12.9799 C.3     1  UNL1        0.0610
     27 C          63.5980   90.8929   13.6783 C.ar    1  UNL1        0.0019
     28 C          63.7242   90.8105   15.1707 C.ar    1  UNL1        0.0949
     29 N          64.8445   91.5225   15.8692 N.ar    1  UNL1       -0.2426
     30 C          65.8388   92.3169   15.0752 C.ar    1  UNL1        0.0988
     31 C          65.7127   92.3993   13.5828 C.ar    1  UNL1        0.0189
     32 C          66.7070   93.1937   12.7888 C.ar    1  UNL1        0.0015
     33 C          66.5808   93.2761   11.2964 C.ar    1  UNL1        0.0000
     34 C          65.4605   92.5641   10.5980 C.ar    1  UNL1       -0.0000
     35 C          64.4662   91.7697   11.3919 C.ar    1  UNL1       -0.0002
     36 C          64.5923   91.6873   12.8843 C.ar    1  UNL1       -0.0006
@<TRIPOS>BOND
     1    23    24    1
     2    24    25    1
     3    24    22    1
     4    22     1    1
     5     1     2   ar
     6     2     3    2
     7     2     4   ar
     8     4     5    1
     9     4     6   ar
    10     6     7    2
    11     6     8   ar
    12     8     9   ar
    13     9    13    1
    14    13    14    2
    15    13    15   am
    16    15    16    1
    17    16    17    1
    18    17    18    1
    19    18    19    1
    20    18    20    1
    21     9    10   ar
    22    10    26    1
    23    26    27    1
    24    27    28   ar
    25    28    29   ar
    26    29    30   ar
    27    30    31   ar
    28    31    32   ar
    29    32    33   ar
    30    33    34   ar
    31    34    35   ar
    32    35    36   ar
    33    10    11   ar
    34    11    12   ar
    35    12     1   ar
    36    12     8   ar
    37    20    15    1
    38    36    27   ar
    39    36    31   ar
    40    19    21    1
@<TRIPOS>MOLECULE
*****
 36 40 0 0 0
SMALL
GASTEIGER

@<TRIPOS>ATOM
      1 N          62.5950   93.8343    0.7158 N.ar    1  UNL1       -0.2757
      2 C          61.7152   93.2056    1.7554 C.ar    1  UNL1        0.3342
      3 O          62.3261   92.5541    2.9606 O.2     1  UNL1       -0.2462
      4 N          60.2246   93.2283    1.5899 N.ar    1  UNL1       -0.2467
      5 C          59.3449   92.5996    2.6295 C.3     1  UNL1        0.1382
      6 C          59.6136   93.8797    0.3847 C.ar    1  UNL1        0.2663
      7 O          58.1230   93.9024    0.2192 O.2     1  UNL1       -0.2668
      8 C          60.4933   94.5085   -0.6548 C.ar    1  UNL1        0.0829
      9 C          60.1803   95.2184   -1.9386 C.ar    1  UNL1        0.0624
     10 C          61.4775   95.6345   -2.5664 C.ar    1  UNL1        0.0176
     11 S          62.5922   95.1817   -1.6707 S.2     1  UNL1       -0.0734
     12 C          61.9840   94.4858   -0.4893 C.ar    1  UNL1        0.0982
     13 C          58.8106   95.4684   -2.4965 C.2     1  UNL1        0.2495
     14 O          58.2283   96.8504   -2.4641 O.2     1  UNL1       -0.2699
     15 N          58.0231   94.3364   -3.0868 N.am    1  UNL1       -0.2735
     16 C          56.6485   94.4332   -3.6793 C.3     1  UNL1        0.0964
     17 C          56.2479   93.0655   -4.1469 C.3     1  UNL1        0.0525
     18 C          57.3749   92.1233   -3.8435 C.3     1  UNL1        0.1320
     19 O          57.4003   90.6536   -4.1428 O.3     1  UNL1       -0.3827
     20 C          58.4721   92.9088   -3.1883 C.3     1  UNL1        0.1228
     21 H          58.2439   90.2778   -3.8461 H       1  UNL1        0.2104
     22 C          64.0856   93.8116    0.8814 C.3     1  UNL1        0.1109
     23 C          65.3343   96.0581    0.5012 C.3     1  UNL1        0.0020
     24 C          64.7974   95.0116    1.4322 C.3     1  UNL1        0.0228
     25 C          64.9724   95.1650    2.9140 C.3     1  UNL1        0.0020
     26 C          61.6327   96.3736   -3.8624 C.3     1  UNL1        0.0610
     27 C          62.1439   95.6578   -5.0775 C.ar    1  UNL1        0.0019
     28 C          61.2234   94.7821   -5.8747 C.ar    1  UNL1        0.0949
     29 N          61.7346   94.0663   -7.0898 N.ar    1  UNL1       -0.2426
     30 C          63.1663   94.2263   -7.5076 C.ar    1  UNL1        0.0988
     31 C          64.0869   95.1021   -6.7103 C.ar    1  UNL1        0.0189
     32 C          65.5186   95.2621   -7.1281 C.ar    1  UNL1        0.0015
     33 C          66.4391   96.1378   -6.3308 C.ar    1  UNL1        0.0000
     34 C          65.9279   96.8536   -5.1158 C.ar    1  UNL1       -0.0000
     35 C          64.4962   96.6936   -4.6980 C.ar    1  UNL1       -0.0002
     36 C          63.5757   95.8178   -5.4952 C.ar    1  UNL1       -0.0006
@<TRIPOS>BOND
     1    23    24    1
     2    24    25    1
     3    24    22    1
     4    22     1    1
     5     1     2   ar
     6     2     3    2
     7     2     4   ar
     8     4     5    1
     9     4     6   ar
    10     6     7    2
    11     6     8   ar
    12     8     9   ar
    13     9    13    1
    14    13    14    2
    15    13    15   am
    16    15    16    1
    17    16    17    1
    18    17    18    1
    19    18    19    1
    20    18    20    1
    21     9    10   ar
    22    10    26    1
    23    26    27    1
    24    27    28   ar
    25    28    29   ar
    26    29    30   ar
    27    30    31   ar
    28    31    32   ar
    29    32    33   ar
    30    33    34   ar
    31    34    35   ar
    32    35    36   ar
    33    10    11   ar
    34    11    12   ar
    35    12     1   ar
    36    12     8   ar
    37    20    15    1
    38    36    27   ar
    39    36    31   ar
    40    19    21    1
