@<TRIPOS>MOLECULE
*****
 24 27 0 0 0
SMALL
GASTEIGER

@<TRIPOS>ATOM
      1 N          64.2255   90.9540   13.7151 N.ar    1  UNL1       -0.3100
      2 C          65.3950   91.6970   13.1404 C.ar    1  UNL1        0.1317
      3 N          65.1438   91.8945   11.6749 N.ar    1  UNL1       -0.2300
      4 C          63.8190   91.2737   11.3438 C.ar    1  UNL1        0.0984
      5 C          63.0562   91.1627   10.0570 C.ar    1  UNL1        0.0206
      6 C          61.7259   90.4703   10.0312 C.ar    1  UNL1        0.0016
      7 C          61.1583   89.8890   11.2922 C.ar    1  UNL1        0.0016
      8 C          61.9211   90.0001   12.5789 C.ar    1  UNL1        0.0188
      9 C          63.2515   90.6925   12.6047 C.ar    1  UNL1        0.0789
     10 C          66.6035   92.1609   13.8983 C.3     1  UNL1        0.1199
     11 C          67.9766   91.8030   13.4121 C.3     1  UNL1        0.0871
     12 N          69.1852   92.2669   14.1699 N.3     1  UNL1       -0.2957
     13 C          69.0206   93.0886   15.4139 C.3     1  UNL1        0.0804
     14 C          67.6474   93.4465   15.9001 C.3     1  UNL1        0.0750
     15 S          66.4389   92.9826   15.1423 S.3     1  UNL1       -0.1306
     16 H          69.7438   92.8223   13.5219 H       1  UNL1        0.1233
     17 C          64.0591   90.5445   15.1485 C.3     1  UNL1        0.1339
     18 C          63.3095   84.7584   16.5481 C.3     1  UNL1        0.0310
     19 C          63.4968   86.2050   16.1982 C.ar    1  UNL1       -0.0219
     20 C          64.2539   86.5852   14.9603 C.ar    1  UNL1       -0.0045
     21 C          64.4412   88.0317   14.6104 C.ar    1  UNL1       -0.0027
     22 C          63.8717   89.0981   15.4984 C.ar    1  UNL1        0.0004
     23 C          63.1147   88.7178   16.7363 C.ar    1  UNL1       -0.0027
     24 C          62.9273   87.2713   17.0862 C.ar    1  UNL1       -0.0045
@<TRIPOS>BOND
     1    18    19    1
     2    19    20   ar
     3    20    21   ar
     4    21    22   ar
     5    22    17    1
     6    17     1    1
     7     1     2   ar
     8     2    10    1
     9    10    11    1
    10    11    12    1
    11    12    13    1
    12    13    14    1
    13    14    15    1
    14     2     3   ar
    15     3     4   ar
    16     4     5   ar
    17     5     6   ar
    18     6     7   ar
    19     7     8   ar
    20     8     9   ar
    21    22    23   ar
    22    23    24   ar
    23    24    19   ar
    24     9     1   ar
    25    15    10    1
    26     9     4   ar
    27    12    16    1
@<TRIPOS>MOLECULE
*****
 24 27 0 0 0
SMALL
GASTEIGER

@<TRIPOS>ATOM
      1 N          62.2247   86.9075   11.9278 N.ar    1  UNL1       -0.3100
      2 C          63.1075   86.2752   12.9626 C.ar    1  UNL1        0.1317
      3 N          63.9855   87.3459   13.5395 N.ar    1  UNL1       -0.2300
      4 C          63.6453   88.6398   12.8612 C.ar    1  UNL1        0.0984
      5 C          64.1859   90.0297   13.0220 C.ar    1  UNL1        0.0206
      6 C          63.6383   91.1487   12.1866 C.ar    1  UNL1        0.0016
      7 C          62.5500   90.8777   11.1904 C.ar    1  UNL1        0.0016
      8 C          62.0094   89.4878   11.0297 C.ar    1  UNL1        0.0188
      9 C          62.5571   88.3689   11.8651 C.ar    1  UNL1        0.0789
     10 C          63.1115   84.8267   13.3522 C.3     1  UNL1        0.1199
     11 C          62.3806   84.3790   14.5831 C.3     1  UNL1        0.0871
     12 N          62.3847   82.9305   14.9727 N.3     1  UNL1       -0.2957
     13 C          63.1197   81.9297   14.1313 C.3     1  UNL1        0.0804
     14 C          63.8506   82.3773   12.9003 C.3     1  UNL1        0.0750
     15 S          63.8465   83.8259   12.5107 S.3     1  UNL1       -0.1306
     16 H          61.4101   82.6309   15.0027 H       1  UNL1        0.1233
     17 C          61.1910   86.2022   11.1007 C.3     1  UNL1        0.1339
     18 C          62.4583   84.5686    5.4683 C.3     1  UNL1        0.0310
     19 C          62.1414   84.9770    6.8764 C.ar    1  UNL1       -0.0219
     20 C          63.1579   84.7787    7.9615 C.ar    1  UNL1       -0.0045
     21 C          62.8411   85.1871    9.3696 C.ar    1  UNL1       -0.0027
     22 C          61.5077   85.7938    9.6927 C.ar    1  UNL1        0.0004
     23 C          60.4913   85.9921    8.6075 C.ar    1  UNL1       -0.0027
     24 C          60.8082   85.5836    7.1994 C.ar    1  UNL1       -0.0045
@<TRIPOS>BOND
     1    18    19    1
     2    19    20   ar
     3    20    21   ar
     4    21    22   ar
     5    22    17    1
     6    17     1    1
     7     1     2   ar
     8     2    10    1
     9    10    11    1
    10    11    12    1
    11    12    13    1
    12    13    14    1
    13    14    15    1
    14     2     3   ar
    15     3     4   ar
    16     4     5   ar
    17     5     6   ar
    18     6     7   ar
    19     7     8   ar
    20     8     9   ar
    21    22    23   ar
    22    23    24   ar
    23    24    19   ar
    24     9     1   ar
    25    15    10    1
    26     9     4   ar
    27    12    16    1
@<TRIPOS>MOLECULE
*****
 24 27 0 0 0
SMALL
GASTEIGER

@<TRIPOS>ATOM
      1 N          62.7177   86.3250   12.0116 N.ar    1  UNL1       -0.3100
      2 C          63.4859   87.0454   13.0798 C.ar    1  UNL1        0.1317
      3 N          64.0830   86.0174   13.9945 N.ar    1  UNL1       -0.2300
      4 C          63.6838   84.6617   13.4917 C.ar    1  UNL1        0.0984
      5 C          63.9797   83.2787   13.9914 C.ar    1  UNL1        0.0206
      6 C          63.4317   82.0859   13.2656 C.ar    1  UNL1        0.0016
      7 C          62.5879   82.2760   12.0401 C.ar    1  UNL1        0.0016
      8 C          62.2921   83.6590   11.5404 C.ar    1  UNL1        0.0188
      9 C          62.8400   84.8518   12.2662 C.ar    1  UNL1        0.0789
     10 C          63.6315   88.5326   13.2103 C.3     1  UNL1        0.1199
     11 C          63.0586   89.4373   12.1600 C.3     1  UNL1        0.0871
     12 N          63.2042   90.9245   12.2905 N.3     1  UNL1       -0.2957
     13 C          63.9226   91.5070   13.4714 C.3     1  UNL1        0.0804
     14 C          64.4954   90.6023   14.5217 C.3     1  UNL1        0.0750
     15 S          64.3499   89.1151   14.3912 S.3     1  UNL1       -0.1306
     16 H          62.2611   91.3131   12.2985 H       1  UNL1        0.1233
     17 C          61.9602   86.9654   10.8864 C.3     1  UNL1        0.1339
     18 C          61.6315   84.2346    5.5540 C.3     1  UNL1        0.0310
     19 C          61.7137   84.9173    6.8871 C.ar    1  UNL1       -0.0219
     20 C          63.0122   84.9434    7.6376 C.ar    1  UNL1       -0.0045
     21 C          63.0944   85.6261    8.9707 C.ar    1  UNL1       -0.0027
     22 C          61.8780   86.2828    9.5534 C.ar    1  UNL1        0.0004
     23 C          60.5795   86.2566    8.8029 C.ar    1  UNL1       -0.0027
     24 C          60.4974   85.5739    7.4698 C.ar    1  UNL1       -0.0045
@<TRIPOS>BOND
     1    18    19    1
     2    19    20   ar
     3    20    21   ar
     4    21    22   ar
     5    22    17    1
     6    17     1    1
     7     1     2   ar
     8     2    10    1
     9    10    11    1
    10    11    12    1
    11    12    13    1
    12    13    14    1
    13    14    15    1
    14     2     3   ar
    15     3     4   ar
    16     4     5   ar
    17     5     6   ar
    18     6     7   ar
    19     7     8   ar
    20     8     9   ar
    21    22    23   ar
    22    23    24   ar
    23    24    19   ar
    24     9     1   ar
    25    15    10    1
    26     9     4   ar
    27    12    16    1
@<TRIPOS>MOLECULE
*****
 24 27 0 0 0
SMALL
GASTEIGER

@<TRIPOS>ATOM
      1 N          63.6552   90.2090   13.0683 N.ar    1  UNL1       -0.3100
      2 C          64.4167   89.6994   14.2560 C.ar    1  UNL1        0.1317
      3 N          65.6945   90.4785   14.3563 N.ar    1  UNL1       -0.2300
      4 C          65.7228   91.4696   13.2306 C.ar    1  UNL1        0.0984
      5 C          66.7334   92.5022   12.8277 C.ar    1  UNL1        0.0206
      6 C          66.4836   93.3682   11.6287 C.ar    1  UNL1        0.0016
      7 C          65.2231   93.2016   10.8327 C.ar    1  UNL1        0.0016
      8 C          64.2126   92.1690   11.2357 C.ar    1  UNL1        0.0188
      9 C          64.4624   91.3030   12.4347 C.ar    1  UNL1        0.0789
     10 C          63.9774   88.6032   15.1809 C.3     1  UNL1        0.1199
     11 C          63.1563   88.9288   16.3931 C.3     1  UNL1        0.0871
     12 N          62.7170   87.8327   17.3180 N.3     1  UNL1       -0.2957
     13 C          63.0989   86.4109   17.0307 C.3     1  UNL1        0.0804
     14 C          63.9200   86.0853   15.8184 C.3     1  UNL1        0.0750
     15 S          64.3593   87.1815   14.8935 S.3     1  UNL1       -0.1306
     16 H          61.6980   87.8635   17.3481 H       1  UNL1        0.1233
     17 C          62.3207   89.7119   12.5971 C.3     1  UNL1        0.1339
     18 C          62.0207   85.5653    8.2710 C.3     1  UNL1        0.0310
     19 C          62.0957   86.6019    9.3525 C.ar    1  UNL1       -0.0219
     20 C          62.5127   86.2103   10.7391 C.ar    1  UNL1       -0.0045
     21 C          62.5877   87.2470   11.8206 C.ar    1  UNL1       -0.0027
     22 C          62.2457   88.6753   11.5156 C.ar    1  UNL1        0.0004
     23 C          61.8286   89.0669   10.1289 C.ar    1  UNL1       -0.0027
     24 C          61.7537   88.0302    9.0474 C.ar    1  UNL1       -0.0045
@<TRIPOS>BOND
     1    18    19    1
     2    19    20   ar
     3    20    21   ar
     4    21    22   ar
     5    22    17    1
     6    17     1    1
     7     1     2   ar
     8     2    10    1
     9    10    11    1
    10    11    12    1
    11    12    13    1
    12    13    14    1
    13    14    15    1
    14     2     3   ar
    15     3     4   ar
    16     4     5   ar
    17     5     6   ar
    18     6     7   ar
    19     7     8   ar
    20     8     9   ar
    21    22    23   ar
    22    23    24   ar
    23    24    19   ar
    24     9     1   ar
    25    15    10    1
    26     9     4   ar
    27    12    16    1
@<TRIPOS>MOLECULE
*****
 24 27 0 0 0
SMALL
GASTEIGER

@<TRIPOS>ATOM
      1 N          62.3300   88.0456   11.8755 N.ar    1  UNL1       -0.3100
      2 C          61.8197   87.1773   10.7638 C.ar    1  UNL1        0.1317
      3 N          62.3193   85.7826   10.9986 N.ar    1  UNL1       -0.2300
      4 C          63.1383   85.7888   12.2552 C.ar    1  UNL1        0.0984
      5 C          63.8789   84.7017   12.9760 C.ar    1  UNL1        0.0206
      6 C          64.6261   85.0132   14.2387 C.ar    1  UNL1        0.0016
      7 C          64.6328   86.4118   14.7807 C.ar    1  UNL1        0.0016
      8 C          63.8922   87.4990   14.0599 C.ar    1  UNL1        0.0188
      9 C          63.1449   87.1875   12.7972 C.ar    1  UNL1        0.0789
     10 C          60.9607   87.6252    9.6186 C.3     1  UNL1        0.1199
     11 C          60.8682   89.0825    9.2755 C.3     1  UNL1        0.0871
     12 N          60.0092   89.5303    8.1303 N.3     1  UNL1       -0.2957
     13 C          59.2427   88.5209    7.3282 C.3     1  UNL1        0.0804
     14 C          59.3351   87.0636    7.6713 C.3     1  UNL1        0.0750
     15 S          60.1942   86.6158    8.8165 S.3     1  UNL1       -0.1306
     16 H          60.6205   90.0217    7.4783 H       1  UNL1        0.1233
     17 C          62.0709   89.5142   12.0370 C.3     1  UNL1        0.1339
     18 C          66.6133   93.4185   11.6875 C.3     1  UNL1        0.0310
     19 C          65.4777   92.4425   11.7748 C.ar    1  UNL1       -0.0219
     20 C          65.1605   91.7759   13.0807 C.ar    1  UNL1       -0.0045
     21 C          64.0248   90.7999   13.1680 C.ar    1  UNL1       -0.0027
     22 C          63.2064   90.4902   11.9496 C.ar    1  UNL1        0.0004
     23 C          63.5238   91.1568   10.6438 C.ar    1  UNL1       -0.0027
     24 C          64.6594   92.1329   10.5565 C.ar    1  UNL1       -0.0045
@<TRIPOS>BOND
     1    18    19    1
     2    19    20   ar
     3    20    21   ar
     4    21    22   ar
     5    22    17    1
     6    17     1    1
     7     1     2   ar
     8     2    10    1
     9    10    11    1
    10    11    12    1
    11    12    13    1
    12    13    14    1
    13    14    15    1
    14     2     3   ar
    15     3     4   ar
    16     4     5   ar
    17     5     6   ar
    18     6     7   ar
    19     7     8   ar
    20     8     9   ar
    21    22    23   ar
    22    23    24   ar
    23    24    19   ar
    24     9     1   ar
    25    15    10    1
    26     9     4   ar
    27    12    16    1
@<TRIPOS>MOLECULE
*****
 24 27 0 0 0
SMALL
GASTEIGER

@<TRIPOS>ATOM
      1 N          62.9456   85.8311   12.3283 N.ar    1  UNL1       -0.3100
      2 C          63.3662   85.0353   13.5283 C.ar    1  UNL1        0.1317
      3 N          63.9302   85.9871   14.5412 N.ar    1  UNL1       -0.2300
      4 C          63.8581   87.3711   13.9672 C.ar    1  UNL1        0.0984
      5 C          64.2680   88.7067   14.5133 C.ar    1  UNL1        0.0206
      6 C          64.0694   89.9458   13.6917 C.ar    1  UNL1        0.0016
      7 C          63.4609   89.8494   12.3240 C.ar    1  UNL1        0.0016
      8 C          63.0510   88.5138   11.7780 C.ar    1  UNL1        0.0188
      9 C          63.2496   87.2747   12.5996 C.ar    1  UNL1        0.0789
     10 C          63.2442   83.5488   13.6874 C.3     1  UNL1        0.1199
     11 C          62.2488   82.9770   14.6529 C.3     1  UNL1        0.0871
     12 N          62.1269   81.4905   14.8120 N.3     1  UNL1       -0.2957
     13 C          63.0003   80.5757   14.0056 C.3     1  UNL1        0.0804
     14 C          63.9956   81.1475   13.0401 C.3     1  UNL1        0.0750
     15 S          64.1176   82.6340   12.8810 S.3     1  UNL1       -0.1306
     16 H          61.1615   81.2486   14.5885 H       1  UNL1        0.1233
     17 C          62.3292   85.2800   11.0768 C.3     1  UNL1        0.1339
     18 C          59.1495   88.8667    7.4678 C.3     1  UNL1        0.0310
     19 C          59.9445   87.9700    8.3700 C.ar    1  UNL1       -0.0219
     20 C          59.7812   88.0678    9.8579 C.ar    1  UNL1       -0.0045
     21 C          60.5761   87.1711   10.7601 C.ar    1  UNL1       -0.0027
     22 C          61.5343   86.1766   10.1746 C.ar    1  UNL1        0.0004
     23 C          61.6975   86.0788    8.6867 C.ar    1  UNL1       -0.0027
     24 C          60.9026   86.9755    7.7844 C.ar    1  UNL1       -0.0045
@<TRIPOS>BOND
     1    18    19    1
     2    19    20   ar
     3    20    21   ar
     4    21    22   ar
     5    22    17    1
     6    17     1    1
     7     1     2   ar
     8     2    10    1
     9    10    11    1
    10    11    12    1
    11    12    13    1
    12    13    14    1
    13    14    15    1
    14     2     3   ar
    15     3     4   ar
    16     4     5   ar
    17     5     6   ar
    18     6     7   ar
    19     7     8   ar
    20     8     9   ar
    21    22    23   ar
    22    23    24   ar
    23    24    19   ar
    24     9     1   ar
    25    15    10    1
    26     9     4   ar
    27    12    16    1
@<TRIPOS>MOLECULE
*****
 24 27 0 0 0
SMALL
GASTEIGER

@<TRIPOS>ATOM
      1 N          63.2797   87.4892   12.7517 N.ar    1  UNL1       -0.3100
      2 C          63.1917   88.9864   12.7810 C.ar    1  UNL1        0.1317
      3 N          62.4586   89.4318   11.5505 N.ar    1  UNL1       -0.2300
      4 C          62.0934   88.2099   10.7607 C.ar    1  UNL1        0.0984
      5 C          61.3644   88.0354    9.4615 C.ar    1  UNL1        0.0206
      6 C          61.1428   86.6604    8.9047 C.ar    1  UNL1        0.0016
      7 C          61.6503   85.4598    9.6471 C.ar    1  UNL1        0.0016
      8 C          62.3793   85.6343   10.9463 C.ar    1  UNL1        0.0188
      9 C          62.6009   87.0093   11.5031 C.ar    1  UNL1        0.0789
     10 C          63.7406   89.8810   13.8526 C.3     1  UNL1        0.1199
     11 C          63.1228   89.8802   15.2195 C.3     1  UNL1        0.0871
     12 N          63.6717   90.7749   16.2911 N.3     1  UNL1       -0.2957
     13 C          64.8383   91.6703   15.9959 C.3     1  UNL1        0.0804
     14 C          65.4560   91.6711   14.6290 C.3     1  UNL1        0.0750
     15 S          64.9072   90.7765   13.5574 S.3     1  UNL1       -0.1306
     16 H          63.9522   90.1710   17.0638 H       1  UNL1        0.1233
     17 C          63.9319   86.6239   13.7889 C.3     1  UNL1        0.1339
     18 C          62.8684   80.7195   13.8704 C.3     1  UNL1        0.0310
     19 C          63.1343   82.1956   13.8501 C.ar    1  UNL1       -0.0219
     20 C          62.2404   83.1292   14.6112 C.ar    1  UNL1       -0.0045
     21 C          62.5063   84.6053   14.5908 C.ar    1  UNL1       -0.0027
     22 C          63.6660   85.1478   13.8093 C.ar    1  UNL1        0.0004
     23 C          64.5599   84.2142   13.0482 C.ar    1  UNL1       -0.0027
     24 C          64.2940   82.7381   13.0686 C.ar    1  UNL1       -0.0045
@<TRIPOS>BOND
     1    18    19    1
     2    19    20   ar
     3    20    21   ar
     4    21    22   ar
     5    22    17    1
     6    17     1    1
     7     1     2   ar
     8     2    10    1
     9    10    11    1
    10    11    12    1
    11    12    13    1
    12    13    14    1
    13    14    15    1
    14     2     3   ar
    15     3     4   ar
    16     4     5   ar
    17     5     6   ar
    18     6     7   ar
    19     7     8   ar
    20     8     9   ar
    21    22    23   ar
    22    23    24   ar
    23    24    19   ar
    24     9     1   ar
    25    15    10    1
    26     9     4   ar
    27    12    16    1
@<TRIPOS>MOLECULE
*****
 24 27 0 0 0
SMALL
GASTEIGER

@<TRIPOS>ATOM
      1 N          63.2522   86.9919   12.7436 N.ar    1  UNL1       -0.3100
      2 C          62.6875   85.6692   12.3175 C.ar    1  UNL1        0.1317
      3 N          61.7921   85.9061   11.1376 N.ar    1  UNL1       -0.2300
      4 C          61.8034   87.3751   10.8346 C.ar    1  UNL1        0.0984
      5 C          61.1085   88.1884    9.7830 C.ar    1  UNL1        0.0206
      6 C          61.3161   89.6727    9.7241 C.ar    1  UNL1        0.0016
      7 C          62.2186   90.3438   10.7167 C.ar    1  UNL1        0.0016
      8 C          62.9134   89.5305   11.7682 C.ar    1  UNL1        0.0188
      9 C          62.7058   88.0462   11.8271 C.ar    1  UNL1        0.0789
     10 C          62.9688   84.3426   12.9586 C.3     1  UNL1        0.1199
     11 C          62.4332   84.0424   14.3271 C.3     1  UNL1        0.0871
     12 N          62.7145   82.7158   14.9682 N.3     1  UNL1       -0.2957
     13 C          63.5315   81.6895   14.2408 C.3     1  UNL1        0.0804
     14 C          64.0671   81.9897   12.8723 C.3     1  UNL1        0.0750
     15 S          63.7858   83.3163   12.2312 S.3     1  UNL1       -0.1306
     16 H          61.8105   82.2866   15.1657 H       1  UNL1        0.1233
     17 C          64.1974   87.2202   13.8857 C.3     1  UNL1        0.1339
     18 C          64.0657   92.4075   16.8981 C.3     1  UNL1        0.0310
     19 C          64.0986   91.1107   16.1450 C.ar    1  UNL1       -0.0219
     20 C          64.9126   90.9923   14.8906 C.ar    1  UNL1       -0.0045
     21 C          64.9455   89.6955   14.1376 C.ar    1  UNL1       -0.0027
     22 C          64.1645   88.5170   14.6388 C.ar    1  UNL1        0.0004
     23 C          63.3505   88.6354   15.8932 C.ar    1  UNL1       -0.0027
     24 C          63.3176   89.9323   16.6462 C.ar    1  UNL1       -0.0045
@<TRIPOS>BOND
     1    18    19    1
     2    19    20   ar
     3    20    21   ar
     4    21    22   ar
     5    22    17    1
     6    17     1    1
     7     1     2   ar
     8     2    10    1
     9    10    11    1
    10    11    12    1
    11    12    13    1
    12    13    14    1
    13    14    15    1
    14     2     3   ar
    15     3     4   ar
    16     4     5   ar
    17     5     6   ar
    18     6     7   ar
    19     7     8   ar
    20     8     9   ar
    21    22    23   ar
    22    23    24   ar
    23    24    19   ar
    24     9     1   ar
    25    15    10    1
    26     9     4   ar
    27    12    16    1
@<TRIPOS>MOLECULE
*****
 24 27 0 0 0
SMALL
GASTEIGER

@<TRIPOS>ATOM
      1 N          63.8881   88.5252   13.5617 N.ar    1  UNL1       -0.3100
      2 C          64.0455   90.0140   13.4685 C.ar    1  UNL1        0.1317
      3 N          63.3993   90.4695   12.1938 N.ar    1  UNL1       -0.2300
      4 C          62.8425   89.2622   11.4992 C.ar    1  UNL1        0.0984
      5 C          62.0994   89.1019   10.2061 C.ar    1  UNL1        0.0206
      6 C          61.6585   87.7398    9.7585 C.ar    1  UNL1        0.0016
      7 C          61.9606   86.5382   10.6039 C.ar    1  UNL1        0.0016
      8 C          62.7037   86.6985   11.8969 C.ar    1  UNL1        0.0188
      9 C          63.1446   88.0605   12.3446 C.ar    1  UNL1        0.0789
     10 C          64.7291   90.8929   14.4736 C.3     1  UNL1        0.1199
     11 C          63.9834   91.3669   15.6857 C.3     1  UNL1        0.0871
     12 N          64.6670   92.2458   16.6907 N.3     1  UNL1       -0.2957
     13 C          66.0964   92.6509   16.4836 C.3     1  UNL1        0.0804
     14 C          66.8421   92.1770   15.2715 C.3     1  UNL1        0.0750
     15 S          66.1585   91.2980   14.2665 S.3     1  UNL1       -0.1306
     16 H          64.6260   91.7574   17.5852 H       1  UNL1        0.1233
     17 C          64.3867   87.6539   14.6763 C.3     1  UNL1        0.1339
     18 C          63.2239   81.7679   14.6331 C.3     1  UNL1        0.0310
     19 C          63.5146   83.2394   14.6439 C.ar    1  UNL1       -0.0219
     20 C          64.7060   83.7739   13.9057 C.ar    1  UNL1       -0.0045
     21 C          64.9967   85.2454   13.9165 C.ar    1  UNL1       -0.0027
     22 C          64.0960   86.1825   14.6655 C.ar    1  UNL1        0.0004
     23 C          62.9047   85.6479   15.4037 C.ar    1  UNL1       -0.0027
     24 C          62.6140   84.1764   15.3929 C.ar    1  UNL1       -0.0045
@<TRIPOS>BOND
     1    18    19    1
     2    19    20   ar
     3    20    21   ar
     4    21    22   ar
     5    22    17    1
     6    17     1    1
     7     1     2   ar
     8     2    10    1
     9    10    11    1
    10    11    12    1
    11    12    13    1
    12    13    14    1
    13    14    15    1
    14     2     3   ar
    15     3     4   ar
    16     4     5   ar
    17     5     6   ar
    18     6     7   ar
    19     7     8   ar
    20     8     9   ar
    21    22    23   ar
    22    23    24   ar
    23    24    19   ar
    24     9     1   ar
    25    15    10    1
    26     9     4   ar
    27    12    16    1
