@<TRIPOS>MOLECULE
*****
 31 33 0 0 0
SMALL
GASTEIGER

@<TRIPOS>ATOM
      1 N          63.9085   86.5727   13.7839 N.3     1  UNL1       -0.1591
      2 C          64.4136   87.4298   14.9065 C.3     1  UNL1        0.0991
      3 C          64.3130   88.9234   14.8134 C.3     1  UNL1        0.0627
      4 C          63.7075   89.5601   13.5976 C.3     1  UNL1        0.1688
      5 C          63.2024   88.7030   12.4750 C.3     1  UNL1        0.0627
      6 C          63.3030   87.2093   12.5681 C.3     1  UNL1        0.0991
      7 S          64.0090   85.0789   13.8769 S.O2    1  UNL1        0.0459
      8 O          62.6698   84.9475   13.2144 O.2     1  UNL1       -0.1572
      9 O          65.3483   85.2102   14.5395 O.2     1  UNL1       -0.1572
     10 C          64.1095   83.5852   13.9700 C.3     1  UNL1        0.1958
     11 C          62.7604   83.7039   15.4517 C.3     1  UNL1        0.0310
     12 C          62.8907   82.7697   14.2854 C.3     1  UNL1        0.1509
     13 N          61.6447   82.1496   14.8447 N.am    1  UNL1       -0.2825
     14 C          61.2596   81.0025   13.9580 C.2     1  UNL1        0.3068
     15 O          60.0746   80.1022   14.1456 O.2     1  UNL1       -0.2524
     16 N          62.2677   80.9138   12.8508 N.am    1  UNL1       -0.2383
     17 C          63.2758   82.0060   13.0531 C.2     1  UNL1        0.2469
     18 O          64.4608   82.2854   12.1770 O.2     1  UNL1       -0.2729
     19 H          61.1639   82.4437   15.6519 H       1  UNL1        0.1514
     20 H          62.2677   80.2545   12.1197 H       1  UNL1        0.1591
     21 O          63.6070   91.0539   13.5045 O.3     1  UNL1       -0.4791
     22 C          64.5497   91.8153   12.6206 C.ar    1  UNL1        0.1384
     23 C          65.7828   92.4409   13.2019 C.ar    1  UNL1        0.0368
     24 C          66.7256   93.2024   12.3179 C.ar    1  UNL1        0.0070
     25 C          66.4351   93.3384   10.8526 C.ar    1  UNL1        0.0716
     26 C          65.2019   92.7128   10.2713 C.ar    1  UNL1        0.0070
     27 C          64.2592   91.9513   11.1552 C.ar    1  UNL1        0.0368
     28 C          67.3778   94.0998    9.9686 C.3     1  UNL1        0.4186
     29 F          68.3205   94.8614    9.0847 F       1  UNL1       -0.1659
     30 F          67.6939   92.8392    9.2198 F       1  UNL1       -0.1659
     31 F          67.0616   95.3605   10.7175 F       1  UNL1       -0.1659
@<TRIPOS>BOND
     1    12    11    1
     2    12    10    1
     3    10     7    1
     4     7     8    2
     5     7     9    2
     6     7     1    1
     7     1     2    1
     8     2     3    1
     9     3     4    1
    10     4    21    1
    11    21    22    1
    12    22    23   ar
    13    23    24   ar
    14    24    25   ar
    15    25    28    1
    16    28    29    1
    17    28    30    1
    18    28    31    1
    19    25    26   ar
    20    26    27   ar
    21     4     5    1
    22     5     6    1
    23    12    13    1
    24    13    14   am
    25    14    15    2
    26    14    16   am
    27    16    17   am
    28    17    18    2
    29    17    12    1
    30     6     1    1
    31    27    22   ar
    32    13    19    1
    33    16    20    1
@<TRIPOS>MOLECULE
*****
 31 33 0 0 0
SMALL
GASTEIGER

@<TRIPOS>ATOM
      1 N          63.7691   88.1771   15.4646 N.3     1  UNL1       -0.1591
      2 C          64.2775   87.2980   14.3607 C.3     1  UNL1        0.0991
      3 C          64.1469   85.8076   14.4685 C.3     1  UNL1        0.0627
      4 C          63.5079   85.1964   15.6801 C.3     1  UNL1        0.1688
      5 C          62.9996   86.0755   16.7840 C.3     1  UNL1        0.0627
      6 C          63.1301   87.5659   16.6763 C.3     1  UNL1        0.0991
      7 S          63.8997   89.6676   15.3569 S.O2    1  UNL1        0.0459
      8 O          62.6057   89.8344   16.0969 O.2     1  UNL1       -0.1572
      9 O          65.1937   89.5008   14.6168 O.2     1  UNL1       -0.1572
     10 C          64.0302   91.1580   15.2492 C.3     1  UNL1        0.1958
     11 C          63.7284   90.9256   13.2782 C.3     1  UNL1        0.0310
     12 C          64.6984   91.7678   14.0527 C.3     1  UNL1        0.1509
     13 N          65.1638   92.2016   12.6943 N.am    1  UNL1       -0.2825
     14 C          66.2818   93.1845   12.8794 C.2     1  UNL1        0.3068
     15 O          67.0410   93.8728   11.7840 O.2     1  UNL1       -0.2524
     16 N          66.5072   93.3581   14.3521 N.am    1  UNL1       -0.2383
     17 C          65.5287   92.4826   15.0773 C.2     1  UNL1        0.2469
     18 O          65.4025   92.3459   16.5657 O.2     1  UNL1       -0.2729
     19 H          64.7995   91.8950   11.8326 H       1  UNL1        0.1514
     20 H          67.1795   93.9439   14.7695 H       1  UNL1        0.1591
     21 O          63.3773   83.7059   15.7879 O.3     1  UNL1       -0.4791
     22 C          63.2716   82.8706   14.5465 C.ar    1  UNL1        0.1384
     23 C          64.2864   83.0215   13.4523 C.ar    1  UNL1        0.0368
     24 C          64.1806   82.1861   12.2108 C.ar    1  UNL1        0.0070
     25 C          63.0600   81.2000   12.0637 C.ar    1  UNL1        0.0716
     26 C          62.0452   81.0491   13.1579 C.ar    1  UNL1        0.0070
     27 C          62.1509   81.8844   14.3993 C.ar    1  UNL1        0.0368
     28 C          62.9542   80.3647   10.8223 C.3     1  UNL1        0.4186
     29 F          62.8485   79.5294    9.5808 F       1  UNL1       -0.1659
     30 F          62.5318   79.1875   11.6504 F       1  UNL1       -0.1659
     31 F          63.3767   81.5419    9.9942 F       1  UNL1       -0.1659
@<TRIPOS>BOND
     1    12    11    1
     2    12    10    1
     3    10     7    1
     4     7     8    2
     5     7     9    2
     6     7     1    1
     7     1     2    1
     8     2     3    1
     9     3     4    1
    10     4    21    1
    11    21    22    1
    12    22    23   ar
    13    23    24   ar
    14    24    25   ar
    15    25    28    1
    16    28    29    1
    17    28    30    1
    18    28    31    1
    19    25    26   ar
    20    26    27   ar
    21     4     5    1
    22     5     6    1
    23    12    13    1
    24    13    14   am
    25    14    15    2
    26    14    16   am
    27    16    17   am
    28    17    18    2
    29    17    12    1
    30     6     1    1
    31    27    22   ar
    32    13    19    1
    33    16    20    1
@<TRIPOS>MOLECULE
*****
 31 33 0 0 0
SMALL
GASTEIGER

@<TRIPOS>ATOM
      1 N          63.7955   86.3242   13.6716 N.3     1  UNL1       -0.1591
      2 C          64.3402   87.1019   14.8328 C.3     1  UNL1        0.0991
      3 C          64.3086   88.6014   14.8120 C.3     1  UNL1        0.0627
      4 C          63.7323   89.3231   13.6300 C.3     1  UNL1        0.1688
      5 C          63.1875   88.5454   12.4689 C.3     1  UNL1        0.0627
      6 C          63.2191   87.0459   12.4897 C.3     1  UNL1        0.0991
      7 S          63.8270   84.8246   13.6924 S.O2    1  UNL1        0.0459
      8 O          62.4477   84.7874   13.1043 O.2     1  UNL1       -0.1572
      9 O          65.2064   84.8617   14.2804 O.2     1  UNL1       -0.1572
     10 C          63.8586   83.3251   13.7131 C.3     1  UNL1        0.1958
     11 C          64.4977   83.7016   11.8478 C.3     1  UNL1        0.0310
     12 C          63.7285   82.5544   12.4329 C.3     1  UNL1        0.1509
     13 N          63.7592   82.0236   11.0303 N.am    1  UNL1       -0.2825
     14 C          63.0362   80.7093   11.0162 C.2     1  UNL1        0.3068
     15 O          62.8273   79.8307    9.8185 O.2     1  UNL1       -0.2524
     16 N          62.5586   80.4280   12.4100 N.am    1  UNL1       -0.2383
     17 C          62.9865   81.5683   13.2856 C.2     1  UNL1        0.2469
     18 O          62.7193   81.6995   14.7557 O.2     1  UNL1       -0.2729
     19 H          64.1800   82.4609   10.2551 H       1  UNL1        0.1514
     20 H          62.0531   79.6343   12.6994 H       1  UNL1        0.1591
     21 O          63.7007   90.8227   13.6093 O.3     1  UNL1       -0.4791
     22 C          64.6377   91.5803   12.7160 C.ar    1  UNL1        0.1384
     23 C          64.2510   91.8688   11.2957 C.ar    1  UNL1        0.0368
     24 C          65.1881   92.6265   10.4024 C.ar    1  UNL1        0.0070
     25 C          66.5118   93.0956   10.9294 C.ar    1  UNL1        0.0716
     26 C          66.8985   92.8070   12.3497 C.ar    1  UNL1        0.0070
     27 C          65.9614   92.0494   13.2430 C.ar    1  UNL1        0.0368
     28 C          67.4488   93.8532   10.0361 C.3     1  UNL1        0.4186
     29 F          68.3858   94.6109    9.1428 F       1  UNL1       -0.1659
     30 F          67.8788   92.5666    9.3960 F       1  UNL1       -0.1659
     31 F          67.0188   95.1397   10.6763 F       1  UNL1       -0.1659
@<TRIPOS>BOND
     1    12    11    1
     2    12    10    1
     3    10     7    1
     4     7     8    2
     5     7     9    2
     6     7     1    1
     7     1     2    1
     8     2     3    1
     9     3     4    1
    10     4    21    1
    11    21    22    1
    12    22    23   ar
    13    23    24   ar
    14    24    25   ar
    15    25    28    1
    16    28    29    1
    17    28    30    1
    18    28    31    1
    19    25    26   ar
    20    26    27   ar
    21     4     5    1
    22     5     6    1
    23    12    13    1
    24    13    14   am
    25    14    15    2
    26    14    16   am
    27    16    17   am
    28    17    18    2
    29    17    12    1
    30     6     1    1
    31    27    22   ar
    32    13    19    1
    33    16    20    1
@<TRIPOS>MOLECULE
*****
 31 33 0 0 0
SMALL
GASTEIGER

@<TRIPOS>ATOM
      1 N          64.4819   91.6506   11.7283 N.3     1  UNL1       -0.1591
      2 C          64.3404   90.7604   12.9272 C.3     1  UNL1        0.0991
      3 C          63.3762   89.6117   12.8987 C.3     1  UNL1        0.0627
      4 C          62.5536   89.3532   11.6713 C.3     1  UNL1        0.1688
      5 C          62.6951   90.2435   10.4724 C.3     1  UNL1        0.0627
      6 C          63.6592   91.3922   10.5009 C.3     1  UNL1        0.0991
      7 S          65.4461   92.7994   11.7567 S.O2    1  UNL1        0.0459
      8 O          65.7222   92.5317   13.2065 O.2     1  UNL1       -0.1572
      9 O          65.1700   93.0671   10.3069 O.2     1  UNL1       -0.1572
     10 C          66.4102   93.9481   11.7852 C.3     1  UNL1        0.1958
     11 C          67.3844   93.0580   10.2724 C.3     1  UNL1        0.0310
     12 C          66.9775   94.4831   10.5038 C.3     1  UNL1        0.1509
     13 N          67.6298   94.7201    9.1740 N.am    1  UNL1       -0.2825
     14 C          67.5075   96.1800    8.8515 C.2     1  UNL1        0.3068
     15 O          68.0227   96.8560    7.6155 O.2     1  UNL1       -0.2524
     16 N          66.7796   96.8451    9.9818 N.am    1  UNL1       -0.2383
     17 C          66.4520   95.7964   11.0030 C.2     1  UNL1        0.2469
     18 O          65.7264   96.0214   12.2964 O.2     1  UNL1       -0.2729
     19 H          68.0623   94.0375    8.6117 H       1  UNL1        0.1514
     20 H          66.5561   97.8019   10.0428 H       1  UNL1        0.1591
     21 O          61.5893   88.2045   11.6429 O.3     1  UNL1       -0.4791
     22 C          61.4953   87.3343   10.4248 C.ar    1  UNL1        0.1384
     23 C          62.6206   86.4050   10.0781 C.ar    1  UNL1        0.0368
     24 C          62.5264   85.5348    8.8599 C.ar    1  UNL1        0.0070
     25 C          61.3070   85.5938    7.9885 C.ar    1  UNL1        0.0716
     26 C          60.1817   86.5231    8.3351 C.ar    1  UNL1        0.0070
     27 C          60.2758   87.3933    9.5532 C.ar    1  UNL1        0.0368
     28 C          61.2129   84.7236    6.7703 C.3     1  UNL1        0.4186
     29 F          61.1188   83.8534    5.5522 F       1  UNL1       -0.1659
     30 F          62.7072   84.5950    6.7468 F       1  UNL1       -0.1659
     31 F          59.7187   84.8523    6.7939 F       1  UNL1       -0.1659
@<TRIPOS>BOND
     1    12    11    1
     2    12    10    1
     3    10     7    1
     4     7     8    2
     5     7     9    2
     6     7     1    1
     7     1     2    1
     8     2     3    1
     9     3     4    1
    10     4    21    1
    11    21    22    1
    12    22    23   ar
    13    23    24   ar
    14    24    25   ar
    15    25    28    1
    16    28    29    1
    17    28    30    1
    18    28    31    1
    19    25    26   ar
    20    26    27   ar
    21     4     5    1
    22     5     6    1
    23    12    13    1
    24    13    14   am
    25    14    15    2
    26    14    16   am
    27    16    17   am
    28    17    18    2
    29    17    12    1
    30     6     1    1
    31    27    22   ar
    32    13    19    1
    33    16    20    1
@<TRIPOS>MOLECULE
*****
 31 33 0 0 0
SMALL
GASTEIGER

@<TRIPOS>ATOM
      1 N          63.7396   86.0982   13.5789 N.3     1  UNL1       -0.1591
      2 C          63.1401   86.8591   12.4337 C.3     1  UNL1        0.0991
      3 C          63.1870   88.3583   12.4229 C.3     1  UNL1        0.0627
      4 C          63.8334   89.0966   13.5574 C.3     1  UNL1        0.1688
      5 C          64.4330   88.3357   14.7026 C.3     1  UNL1        0.0627
      6 C          64.3860   86.8365   14.7134 C.3     1  UNL1        0.0991
      7 S          63.6927   84.5989   13.5897 S.O2    1  UNL1        0.0459
      8 O          65.0964   84.5588   14.1169 O.2     1  UNL1       -0.1572
      9 O          62.2890   84.6390   13.0624 O.2     1  UNL1       -0.1572
     10 C          63.6459   83.0997   13.6005 C.3     1  UNL1        0.1958
     11 C          64.2676   83.5484   11.7453 C.3     1  UNL1        0.0310
     12 C          63.5757   82.3422   12.3077 C.3     1  UNL1        0.1509
     13 N          63.6502   81.8369   10.8974 N.am    1  UNL1       -0.2825
     14 C          63.0189   80.4767   10.8584 C.2     1  UNL1        0.3068
     15 O          62.8771   79.6048    9.6461 O.2     1  UNL1       -0.2524
     16 N          62.5543   80.1414   12.2447 N.am    1  UNL1       -0.2383
     17 C          62.8984   81.2943   13.1404 C.2     1  UNL1        0.2469
     18 O          62.6150   81.3838   14.6106 O.2     1  UNL1       -0.2729
     19 H          64.0442   82.3141   10.1317 H       1  UNL1        0.1514
     20 H          62.1028   79.3105   12.5186 H       1  UNL1        0.1591
     21 O          63.8803   90.5958   13.5466 O.3     1  UNL1       -0.4791
     22 C          65.0608   91.3135   14.1309 C.ar    1  UNL1        0.1384
     23 C          66.2746   91.5708   13.2879 C.ar    1  UNL1        0.0368
     24 C          67.4551   92.2885   13.8722 C.ar    1  UNL1        0.0070
     25 C          67.4218   92.7489   15.2994 C.ar    1  UNL1        0.0716
     26 C          66.2080   92.4916   16.1424 C.ar    1  UNL1        0.0070
     27 C          65.0276   91.7739   15.5581 C.ar    1  UNL1        0.0368
     28 C          68.6023   93.4665   15.8837 C.3     1  UNL1        0.4186
     29 F          69.7829   94.1842   16.4680 F       1  UNL1       -0.1659
     30 F          68.0938   94.7608   15.3212 F       1  UNL1       -0.1659
     31 F          69.1108   92.1723   16.4461 F       1  UNL1       -0.1659
@<TRIPOS>BOND
     1    12    11    1
     2    12    10    1
     3    10     7    1
     4     7     8    2
     5     7     9    2
     6     7     1    1
     7     1     2    1
     8     2     3    1
     9     3     4    1
    10     4    21    1
    11    21    22    1
    12    22    23   ar
    13    23    24   ar
    14    24    25   ar
    15    25    28    1
    16    28    29    1
    17    28    30    1
    18    28    31    1
    19    25    26   ar
    20    26    27   ar
    21     4     5    1
    22     5     6    1
    23    12    13    1
    24    13    14   am
    25    14    15    2
    26    14    16   am
    27    16    17   am
    28    17    18    2
    29    17    12    1
    30     6     1    1
    31    27    22   ar
    32    13    19    1
    33    16    20    1
@<TRIPOS>MOLECULE
*****
 31 33 0 0 0
SMALL
GASTEIGER

@<TRIPOS>ATOM
      1 N          64.4922   91.6461   11.6335 N.3     1  UNL1       -0.1591
      2 C          64.4109   90.7499   12.8336 C.3     1  UNL1        0.0991
      3 C          63.4545   89.5944   12.8433 C.3     1  UNL1        0.0627
      4 C          62.5794   89.3352   11.6529 C.3     1  UNL1        0.1688
      5 C          62.6607   90.2313   10.4528 C.3     1  UNL1        0.0627
      6 C          63.6171   91.3868   10.4431 C.3     1  UNL1        0.0991
      7 S          65.4487   92.8016   11.6238 S.O2    1  UNL1        0.0459
      8 O          65.1767   93.0144   10.1641 O.2     1  UNL1       -0.1572
      9 O          65.7207   92.5888   13.0834 O.2     1  UNL1       -0.1572
     10 C          66.4051   93.9571   11.6140 C.3     1  UNL1        0.1958
     11 C          67.3170   93.0620   10.0658 C.3     1  UNL1        0.0310
     12 C          66.9254   94.4890   10.3115 C.3     1  UNL1        0.1509
     13 N          67.5276   94.7225    8.9577 N.am    1  UNL1       -0.2825
     14 C          67.3994   96.1827    8.6391 C.2     1  UNL1        0.3068
     15 O          67.8700   96.8559    7.3839 O.2     1  UNL1       -0.2524
     16 N          66.7180   96.8516    9.7959 N.am    1  UNL1       -0.2383
     17 C          66.4250   95.8048   10.8296 C.2     1  UNL1        0.2469
     18 O          65.7502   96.0336   12.1495 O.2     1  UNL1       -0.2729
     19 H          67.9354   94.0377    8.3798 H       1  UNL1        0.1514
     20 H          66.5011   97.8094    9.8647 H       1  UNL1        0.1591
     21 O          61.6229   88.1796   11.6626 O.3     1  UNL1       -0.4791
     22 C          62.1161   86.7953   11.3618 C.ar    1  UNL1        0.1384
     23 C          62.4367   85.8530   12.4840 C.ar    1  UNL1        0.0368
     24 C          62.9299   84.4687   12.1831 C.ar    1  UNL1        0.0070
     25 C          63.1023   84.0267   10.7601 C.ar    1  UNL1        0.0716
     26 C          62.7816   84.9690    9.6380 C.ar    1  UNL1        0.0070
     27 C          62.2885   86.3533    9.9388 C.ar    1  UNL1        0.0368
     28 C          63.5954   82.6424   10.4593 C.3     1  UNL1        0.4186
     29 F          64.0886   81.2580   10.1585 F       1  UNL1       -0.1659
     30 F          62.5474   82.0716   11.3680 F       1  UNL1       -0.1659
     31 F          64.6434   83.2132    9.5506 F       1  UNL1       -0.1659
@<TRIPOS>BOND
     1    12    11    1
     2    12    10    1
     3    10     7    1
     4     7     8    2
     5     7     9    2
     6     7     1    1
     7     1     2    1
     8     2     3    1
     9     3     4    1
    10     4    21    1
    11    21    22    1
    12    22    23   ar
    13    23    24   ar
    14    24    25   ar
    15    25    28    1
    16    28    29    1
    17    28    30    1
    18    28    31    1
    19    25    26   ar
    20    26    27   ar
    21     4     5    1
    22     5     6    1
    23    12    13    1
    24    13    14   am
    25    14    15    2
    26    14    16   am
    27    16    17   am
    28    17    18    2
    29    17    12    1
    30     6     1    1
    31    27    22   ar
    32    13    19    1
    33    16    20    1
@<TRIPOS>MOLECULE
*****
 31 33 0 0 0
SMALL
GASTEIGER

@<TRIPOS>ATOM
      1 N          63.8827   86.2467   13.6747 N.3     1  UNL1       -0.1591
      2 C          63.3113   87.0441   12.5401 C.3     1  UNL1        0.0991
      3 C          63.3480   88.5430   12.5837 C.3     1  UNL1        0.0627
      4 C          63.9561   89.2444   13.7619 C.3     1  UNL1        0.1688
      5 C          64.5275   88.4470   14.8965 C.3     1  UNL1        0.0627
      6 C          64.4908   86.9481   14.8530 C.3     1  UNL1        0.0991
      7 S          63.8460   84.7477   13.6312 S.O2    1  UNL1        0.0459
      8 O          62.4676   84.7986   13.0417 O.2     1  UNL1       -0.1572
      9 O          65.2243   84.6968   14.2207 O.2     1  UNL1       -0.1572
     10 C          63.8092   83.2488   13.5877 C.3     1  UNL1        0.1958
     11 C          62.7343   83.4560   15.2703 C.3     1  UNL1        0.0310
     12 C          62.6116   82.5124   14.1107 C.3     1  UNL1        0.1509
     13 N          61.4397   81.9733   14.8762 N.am    1  UNL1       -0.2825
     14 C          60.8432   80.8505   14.0803 C.2     1  UNL1        0.3068
     15 O          59.6524   80.0270   14.4728 O.2     1  UNL1       -0.2524
     16 N          61.6464   80.6957   12.8229 N.am    1  UNL1       -0.2383
     17 C          62.7394   81.7228   12.8417 C.2     1  UNL1        0.2469
     18 O          63.7777   81.9248   11.7783 O.2     1  UNL1       -0.2729
     19 H          61.1185   82.2992   15.7479 H       1  UNL1        0.1514
     20 H          61.4846   80.0358   12.1105 H       1  UNL1        0.1591
     21 O          63.9928   90.7434   13.8054 O.3     1  UNL1       -0.4791
     22 C          65.1960   91.4484   14.3578 C.ar    1  UNL1        0.1384
     23 C          66.4179   91.6261   13.5060 C.ar    1  UNL1        0.0368
     24 C          67.6212   92.3312   14.0585 C.ar    1  UNL1        0.0070
     25 C          67.6025   92.8585   15.4625 C.ar    1  UNL1        0.0716
     26 C          66.3806   92.6809   16.3143 C.ar    1  UNL1        0.0070
     27 C          65.1774   91.9759   15.7619 C.ar    1  UNL1        0.0368
     28 C          68.8057   93.5636   16.0149 C.3     1  UNL1        0.4186
     29 F          70.0090   94.2687   16.5673 F       1  UNL1       -0.1659
     30 F          69.3243   92.2610   16.5480 F       1  UNL1       -0.1659
     31 F          68.2872   94.8662   15.4818 F       1  UNL1       -0.1659
@<TRIPOS>BOND
     1    12    11    1
     2    12    10    1
     3    10     7    1
     4     7     8    2
     5     7     9    2
     6     7     1    1
     7     1     2    1
     8     2     3    1
     9     3     4    1
    10     4    21    1
    11    21    22    1
    12    22    23   ar
    13    23    24   ar
    14    24    25   ar
    15    25    28    1
    16    28    29    1
    17    28    30    1
    18    28    31    1
    19    25    26   ar
    20    26    27   ar
    21     4     5    1
    22     5     6    1
    23    12    13    1
    24    13    14   am
    25    14    15    2
    26    14    16   am
    27    16    17   am
    28    17    18    2
    29    17    12    1
    30     6     1    1
    31    27    22   ar
    32    13    19    1
    33    16    20    1
@<TRIPOS>MOLECULE
*****
 31 33 0 0 0
SMALL
GASTEIGER

@<TRIPOS>ATOM
      1 N          64.3173   91.2859   11.8118 N.3     1  UNL1       -0.1591
      2 C          63.8787   90.2096   12.7600 C.3     1  UNL1        0.0991
      3 C          62.7319   89.3131   12.3982 C.3     1  UNL1        0.0627
      4 C          62.0237   89.4928   11.0882 C.3     1  UNL1        0.1688
      5 C          62.4623   90.5691   10.1399 C.3     1  UNL1        0.0627
      6 C          63.6092   91.4656   10.5017 C.3     1  UNL1        0.0991
      7 S          65.4642   92.1825   12.1735 S.O2    1  UNL1        0.0459
      8 O          65.5725   91.5056   13.5077 O.2     1  UNL1       -0.1572
      9 O          65.3560   92.8594   10.8394 O.2     1  UNL1       -0.1572
     10 C          66.6111   93.0790   12.5353 C.3     1  UNL1        0.1958
     11 C          67.9853   91.6181   12.4535 C.3     1  UNL1        0.0310
     12 C          67.6434   92.6159   13.5201 C.3     1  UNL1        0.1509
     13 N          68.7473   91.9442   14.2818 N.am    1  UNL1       -0.2825
     14 C          68.8717   92.6237   15.6134 C.2     1  UNL1        0.3068
     15 O          69.8512   92.2730   16.6940 O.2     1  UNL1       -0.2524
     16 N          67.8448   93.7153   15.6745 N.am    1  UNL1       -0.2383
     17 C          67.0857   93.7105   14.3808 C.2     1  UNL1        0.2469
     18 O          65.9655   94.6376   14.0124 O.2     1  UNL1       -0.2729
     19 H          69.2941   91.1898   13.9638 H       1  UNL1        0.1514
     20 H          67.6953   94.3275   16.4309 H       1  UNL1        0.1591
     21 O          60.8768   88.5962   10.7264 O.3     1  UNL1       -0.4791
     22 C          61.0384   87.5722    9.6424 C.ar    1  UNL1        0.1384
     23 C          59.9176   87.3170    8.6786 C.ar    1  UNL1        0.0368
     24 C          60.0793   86.2929    7.5945 C.ar    1  UNL1        0.0070
     25 C          61.3615   85.5241    7.4742 C.ar    1  UNL1        0.0716
     26 C          62.4823   85.7792    8.4380 C.ar    1  UNL1        0.0070
     27 C          62.3207   86.8032    9.5220 C.ar    1  UNL1        0.0368
     28 C          61.5231   84.5000    6.3901 C.3     1  UNL1        0.4186
     29 F          61.6847   83.4760    5.3060 F       1  UNL1       -0.1659
     30 F          60.0364   84.3049    6.3529 F       1  UNL1       -0.1659
     31 F          63.0099   84.6952    6.4274 F       1  UNL1       -0.1659
@<TRIPOS>BOND
     1    12    11    1
     2    12    10    1
     3    10     7    1
     4     7     8    2
     5     7     9    2
     6     7     1    1
     7     1     2    1
     8     2     3    1
     9     3     4    1
    10     4    21    1
    11    21    22    1
    12    22    23   ar
    13    23    24   ar
    14    24    25   ar
    15    25    28    1
    16    28    29    1
    17    28    30    1
    18    28    31    1
    19    25    26   ar
    20    26    27   ar
    21     4     5    1
    22     5     6    1
    23    12    13    1
    24    13    14   am
    25    14    15    2
    26    14    16   am
    27    16    17   am
    28    17    18    2
    29    17    12    1
    30     6     1    1
    31    27    22   ar
    32    13    19    1
    33    16    20    1
@<TRIPOS>MOLECULE
*****
 31 33 0 0 0
SMALL
GASTEIGER

@<TRIPOS>ATOM
      1 N          63.8806   88.6949   13.9044 N.3     1  UNL1       -0.1591
      2 C          63.4957   87.6710   12.8780 C.3     1  UNL1        0.0991
      3 C          63.4321   86.2202   13.2533 C.3     1  UNL1        0.0627
      4 C          63.7535   85.7932   14.6548 C.3     1  UNL1        0.1688
      5 C          64.1384   86.8171   15.6812 C.3     1  UNL1        0.0627
      6 C          64.2020   88.2679   15.3059 C.3     1  UNL1        0.0991
      7 S          63.9443   90.1459   13.5291 S.O2    1  UNL1        0.0459
      8 O          65.4165   90.1554   13.8158 O.2     1  UNL1       -0.1572
      9 O          62.4720   90.1364   13.2425 O.2     1  UNL1       -0.1572
     10 C          64.0079   91.5968   13.1540 C.3     1  UNL1        0.1958
     11 C          63.9627   91.2667   11.1744 C.3     1  UNL1        0.0310
     12 C          64.9081   92.0449   12.0409 C.3     1  UNL1        0.1509
     13 N          65.6106   92.3302   10.7466 N.am    1  UNL1       -0.2825
     14 C          66.8020   93.1911   11.0460 C.2     1  UNL1        0.3068
     15 O          67.7867   93.7136   10.0423 O.2     1  UNL1       -0.2524
     16 N          66.8357   93.4378   12.5252 N.am    1  UNL1       -0.2383
     17 C          65.6652   92.7293   13.1401 C.2     1  UNL1        0.2469
     18 O          65.3137   92.7090   14.5981 O.2     1  UNL1       -0.2729
     19 H          65.3376   92.0089    9.8570 H       1  UNL1        0.1514
     20 H          67.5081   93.9710   13.0077 H       1  UNL1        0.1591
     21 O          63.6899   84.3422   15.0300 O.3     1  UNL1       -0.4791
     22 C          63.4869   83.3014   13.9692 C.ar    1  UNL1        0.1384
     23 C          62.3811   82.2971   14.1056 C.ar    1  UNL1        0.0368
     24 C          62.1781   81.2563   13.0446 C.ar    1  UNL1        0.0070
     25 C          63.0810   81.2198   11.8474 C.ar    1  UNL1        0.0716
     26 C          64.1868   82.2240   11.7110 C.ar    1  UNL1        0.0070
     27 C          64.3897   83.2648   12.7718 C.ar    1  UNL1        0.0368
     28 C          62.8780   80.1790   10.7865 C.3     1  UNL1        0.4186
     29 F          62.6750   79.1381    9.7256 F       1  UNL1       -0.1659
     30 F          63.2728   81.1734    9.7353 F       1  UNL1       -0.1659
     31 F          62.4831   79.1845   11.8377 F       1  UNL1       -0.1659
@<TRIPOS>BOND
     1    12    11    1
     2    12    10    1
     3    10     7    1
     4     7     8    2
     5     7     9    2
     6     7     1    1
     7     1     2    1
     8     2     3    1
     9     3     4    1
    10     4    21    1
    11    21    22    1
    12    22    23   ar
    13    23    24   ar
    14    24    25   ar
    15    25    28    1
    16    28    29    1
    17    28    30    1
    18    28    31    1
    19    25    26   ar
    20    26    27   ar
    21     4     5    1
    22     5     6    1
    23    12    13    1
    24    13    14   am
    25    14    15    2
    26    14    16   am
    27    16    17   am
    28    17    18    2
    29    17    12    1
    30     6     1    1
    31    27    22   ar
    32    13    19    1
    33    16    20    1
