@<TRIPOS>MOLECULE
*****
 42 47 0 0 0
SMALL
GASTEIGER

@<TRIPOS>ATOM
      1 N          60.7425   92.8080    1.8884 N.am    1  UNL1       -0.1907
      2 C          61.9815   93.4066    1.2911 C.2     1  UNL1        0.3231
      3 O          63.3424   93.4279    1.9215 O.2     1  UNL1       -0.2511
      4 N          61.6206   93.9801   -0.0471 N.am    1  UNL1       -0.2071
      5 C          60.1585   93.7360   -0.2770 C.3     1  UNL1        0.1405
      6 C          58.6945   93.4219   -0.3664 C.3     1  UNL1        0.0450
      7 C          57.9125   93.8305   -1.5794 C.3     1  UNL1        0.0746
      8 N          58.5945   94.5531   -2.7031 N.3     1  UNL1       -0.2676
      9 C          60.0585   94.8672   -2.6138 C.3     1  UNL1        0.0746
     10 C          60.8405   94.4586   -1.4007 C.3     1  UNL1        0.0450
     11 C          59.6158   93.0116    0.9191 C.2     1  UNL1        0.2529
     12 O          58.1958   92.5687    1.1122 O.2     1  UNL1       -0.2724
     13 C          60.4557   90.7611    5.8855 C.ar    1  UNL1       -0.0002
     14 C          59.3123   91.5932    5.3852 C.ar    1  UNL1        0.0013
     15 C          59.4079   92.2755    4.0528 C.ar    1  UNL1        0.0154
     16 C          60.6469   92.1257    3.2207 C.ar    1  UNL1        0.0622
     17 C          61.7902   91.2937    3.7210 C.ar    1  UNL1        0.0154
     18 C          61.6946   90.6114    5.0534 C.ar    1  UNL1        0.0013
     19 C          58.5672   88.4604    6.2605 C.3     1  UNL1        0.0310
     20 C          59.4159   88.9285    7.4054 C.ar    1  UNL1       -0.0218
     21 C          59.3202   88.2461    8.7378 C.ar    1  UNL1       -0.0031
     22 C          60.1689   88.7141    9.8828 C.ar    1  UNL1        0.0137
     23 C          61.1131   89.8645    9.6952 C.ar    1  UNL1        0.0011
     24 C          61.2087   90.5468    8.3628 C.ar    1  UNL1       -0.0003
     25 C          60.3601   90.0788    7.2179 C.ar    1  UNL1       -0.0040
     26 C          60.0733   88.0318   11.2151 C.2     1  UNL1        0.0729
     27 O          60.8736   86.7915   11.4817 O.co2   1  UNL1       -0.5446
     28 O          59.1773   88.5898   12.2809 O.co2   1  UNL1       -0.5446
     29 C          62.5572   94.6756   -0.9899 C.ar    1  UNL1        0.2276
     30 N          62.7537   96.1595   -0.8934 N.ar    1  UNL1       -0.2117
     31 C          63.6904   96.8549   -1.8363 C.ar    1  UNL1        0.1034
     32 C          64.4306   96.0664   -2.8757 C.ar    1  UNL1        0.0414
     33 C          64.2342   94.5825   -2.9722 C.ar    1  UNL1        0.1034
     34 N          63.2975   93.8871   -2.0294 N.ar    1  UNL1       -0.2117
     35 C          57.8124   94.9616   -3.9162 C.3     1  UNL1        0.1183
     36 C          57.4240   93.9353   -4.9388 C.ar    1  UNL1        0.0712
     37 N          56.2375   93.0494   -4.6991 N.ar    1  UNL1       -0.2471
     38 C          55.8490   92.0231   -5.7218 C.ar    1  UNL1        0.0985
     39 C          56.6470   91.8827   -6.9841 C.ar    1  UNL1        0.0203
     40 C          57.8335   92.7685   -7.2238 C.ar    1  UNL1       -0.0015
     41 C          58.2220   93.7948   -6.2012 C.ar    1  UNL1       -0.0069
     42 C          59.4085   94.6807   -6.4408 C.3     1  UNL1        0.0323
@<TRIPOS>UNITY_ATOM_ATTR
27 1
charge -1
@<TRIPOS>BOND
     1    19    20    1
     2    20    21   ar
     3    21    22   ar
     4    22    26    1
     5    26    27   ar
     6    26    28   ar
     7    22    23   ar
     8    23    24   ar
     9    24    25   ar
    10    25    13    1
    11    13    14   ar
    12    14    15   ar
    13    15    16   ar
    14    16     1    1
    15     1     2   am
    16     2     3    2
    17     2     4   am
    18     4    29    1
    19    29    30   ar
    20    30    31   ar
    21    31    32   ar
    22    32    33   ar
    23    33    34   ar
    24     4     5    1
    25     5     6    1
    26     6     7    1
    27     7     8    1
    28     8    35    1
    29    35    36    1
    30    36    37   ar
    31    37    38   ar
    32    38    39   ar
    33    39    40   ar
    34    40    41   ar
    35    41    42    1
    36     8     9    1
    37     9    10    1
    38     5    11    1
    39    11    12    2
    40    16    17   ar
    41    17    18   ar
    42    25    20   ar
    43    18    13   ar
    44    11     1   am
    45    34    29   ar
    46    10     5    1
    47    41    36   ar
@<TRIPOS>MOLECULE
*****
 42 47 0 0 0
SMALL
GASTEIGER

@<TRIPOS>ATOM
      1 N          60.6934   92.7786    1.9059 N.am    1  UNL1       -0.1907
      2 C          61.9254   93.3819    1.2990 C.2     1  UNL1        0.3231
      3 O          63.2928   93.4015    1.9152 O.2     1  UNL1       -0.2511
      4 N          61.5499   93.9621   -0.0323 N.am    1  UNL1       -0.2071
      5 C          60.0858   93.7174   -0.2483 C.3     1  UNL1        0.1405
      6 C          58.6213   93.4020   -0.3241 C.3     1  UNL1        0.0450
      7 C          57.8262   93.8160   -1.5267 C.3     1  UNL1        0.0746
      8 N          58.4956   94.5455   -2.6536 N.3     1  UNL1       -0.2676
      9 C          59.9601   94.8609   -2.5778 C.3     1  UNL1        0.0746
     10 C          60.7552   94.4468   -1.3752 C.3     1  UNL1        0.0450
     11 C          59.5564   92.9860    0.9495 C.2     1  UNL1        0.2529
     12 O          58.1390   92.5403    1.1551 O.2     1  UNL1       -0.2724
     13 C          60.4507   90.7101    5.8948 C.ar    1  UNL1       -0.0002
     14 C          61.6880   90.5805    5.0568 C.ar    1  UNL1        0.0013
     15 C          61.7689   91.2700    3.7272 C.ar    1  UNL1        0.0154
     16 C          60.6125   92.0891    3.2355 C.ar    1  UNL1        0.0622
     17 C          59.3752   92.2187    4.0735 C.ar    1  UNL1        0.0154
     18 C          59.2943   91.5292    5.4031 C.ar    1  UNL1        0.0013
     19 C          58.6526   88.3344    6.2456 C.3     1  UNL1        0.0310
     20 C          59.4708   88.8327    7.3998 C.ar    1  UNL1       -0.0218
     21 C          59.3898   88.1432    8.7296 C.ar    1  UNL1       -0.0031
     22 C          60.2080   88.6415    9.8838 C.ar    1  UNL1        0.0137
     23 C          61.1070   89.8294    9.7084 C.ar    1  UNL1        0.0011
     24 C          61.1879   90.5189    8.3788 C.ar    1  UNL1       -0.0003
     25 C          60.3698   90.0206    7.2245 C.ar    1  UNL1       -0.0040
     26 C          60.1271   87.9520   11.2135 C.2     1  UNL1        0.0729
     27 O          59.2641   88.5194   12.3013 O.co2   1  UNL1       -0.5446
     28 O          60.9091   86.6950   11.4553 O.co2   1  UNL1       -0.5446
     29 C          62.4759   94.6637   -0.9811 C.ar    1  UNL1        0.2276
     30 N          62.6575   96.1499   -0.8906 N.ar    1  UNL1       -0.2117
     31 C          63.5835   96.8514   -1.8395 C.ar    1  UNL1        0.1034
     32 C          64.3279   96.0669   -2.8789 C.ar    1  UNL1        0.0414
     33 C          64.1462   94.5807   -2.9695 C.ar    1  UNL1        0.1034
     34 N          63.2203   93.8791   -2.0206 N.ar    1  UNL1       -0.2117
     35 C          57.7005   94.9595   -3.8563 C.3     1  UNL1        0.1183
     36 C          56.3140   95.5062   -3.6868 C.ar    1  UNL1        0.0712
     37 N          55.9674   96.3070   -2.4668 N.ar    1  UNL1       -0.2471
     38 C          54.5809   96.8537   -2.2973 C.ar    1  UNL1        0.0985
     39 C          53.5409   96.5995   -3.3480 C.ar    1  UNL1        0.0203
     40 C          53.8875   95.7987   -4.5681 C.ar    1  UNL1       -0.0015
     41 C          55.2739   95.2520   -4.7375 C.ar    1  UNL1       -0.0069
     42 C          55.6205   94.4512   -5.9576 C.3     1  UNL1        0.0323
@<TRIPOS>UNITY_ATOM_ATTR
27 1
charge -1
@<TRIPOS>BOND
     1    19    20    1
     2    20    21   ar
     3    21    22   ar
     4    22    26    1
     5    26    27   ar
     6    26    28   ar
     7    22    23   ar
     8    23    24   ar
     9    24    25   ar
    10    25    13    1
    11    13    14   ar
    12    14    15   ar
    13    15    16   ar
    14    16     1    1
    15     1     2   am
    16     2     3    2
    17     2     4   am
    18     4    29    1
    19    29    30   ar
    20    30    31   ar
    21    31    32   ar
    22    32    33   ar
    23    33    34   ar
    24     4     5    1
    25     5     6    1
    26     6     7    1
    27     7     8    1
    28     8    35    1
    29    35    36    1
    30    36    37   ar
    31    37    38   ar
    32    38    39   ar
    33    39    40   ar
    34    40    41   ar
    35    41    42    1
    36     8     9    1
    37     9    10    1
    38     5    11    1
    39    11    12    2
    40    16    17   ar
    41    17    18   ar
    42    25    20   ar
    43    18    13   ar
    44    11     1   am
    45    34    29   ar
    46    10     5    1
    47    41    36   ar
@<TRIPOS>MOLECULE
*****
 42 47 0 0 0
SMALL
GASTEIGER

@<TRIPOS>ATOM
      1 N          65.1618   89.7851   13.5601 N.am    1  UNL1       -0.1907
      2 C          66.2349   90.3002   14.4729 C.2     1  UNL1        0.3231
      3 O          66.8808   89.5387   15.5922 O.2     1  UNL1       -0.2511
      4 N          66.5486   91.7106   14.0700 N.am    1  UNL1       -0.2071
      5 C          65.6694   92.0673   12.9080 C.3     1  UNL1        0.1405
      6 C          64.7308   92.2789   11.7574 C.3     1  UNL1        0.0450
      7 C          64.7120   93.5945   11.0371 C.3     1  UNL1        0.0746
      8 N          65.6319   94.6984   11.4675 N.3     1  UNL1       -0.2676
      9 C          66.5706   94.4867   12.6182 C.3     1  UNL1        0.0746
     10 C          66.5893   93.1711   13.3384 C.3     1  UNL1        0.0450
     11 C          64.8124   90.8772   12.5929 C.2     1  UNL1        0.2529
     12 O          63.7861   90.7939   11.5022 O.2     1  UNL1       -0.2724
     13 C          63.3153   85.6838   13.6986 C.ar    1  UNL1       -0.0002
     14 C          62.9035   86.6561   12.6332 C.ar    1  UNL1        0.0013
     15 C          63.5190   88.0232   12.5870 C.ar    1  UNL1        0.0154
     16 C          64.5463   88.4180   13.6063 C.ar    1  UNL1        0.0622
     17 C          64.9580   87.4458   14.6716 C.ar    1  UNL1        0.0154
     18 C          64.3425   86.0787   14.7178 C.ar    1  UNL1        0.0013
     19 C          63.6412   83.8128   11.3762 C.3     1  UNL1        0.0310
     20 C          62.8627   83.3813   12.5836 C.ar    1  UNL1       -0.0218
     21 C          62.2472   82.0141   12.6298 C.ar    1  UNL1       -0.0031
     22 C          61.4687   81.5824   13.8372 C.ar    1  UNL1        0.0137
     23 C          61.3058   82.5180   14.9984 C.ar    1  UNL1        0.0011
     24 C          61.9213   83.8851   14.9522 C.ar    1  UNL1       -0.0003
     25 C          62.6998   84.3167   13.7448 C.ar    1  UNL1       -0.0040
     26 C          60.8532   80.2153   13.8833 C.2     1  UNL1        0.0729
     27 O          59.4724   80.0330   14.4401 O.co2   1  UNL1       -0.5446
     28 O          61.6185   79.0306   13.3727 O.co2   1  UNL1       -0.5446
     29 C          67.5633   92.6071   14.7155 C.ar    1  UNL1        0.2276
     30 N          67.1351   93.5942   15.7606 N.ar    1  UNL1       -0.2117
     31 C          68.1499   94.4906   16.4060 C.ar    1  UNL1        0.1034
     32 C          69.5929   94.4000   16.0065 C.ar    1  UNL1        0.0414
     33 C          70.0211   93.4129   14.9614 C.ar    1  UNL1        0.1034
     34 N          69.0063   92.5164   14.3159 N.ar    1  UNL1       -0.2117
     35 C          65.6131   96.0141   10.7472 C.3     1  UNL1        0.1183
     36 C          65.7516   96.0537    9.2541 C.ar    1  UNL1        0.0712
     37 N          64.7579   96.8162    8.4287 N.ar    1  UNL1       -0.2471
     38 C          64.8965   96.8558    6.9356 C.ar    1  UNL1        0.0985
     39 C          66.0286   96.1329    6.2680 C.ar    1  UNL1        0.0203
     40 C          67.0222   95.3705    7.0934 C.ar    1  UNL1       -0.0015
     41 C          66.8838   95.3308    8.5864 C.ar    1  UNL1       -0.0069
     42 C          67.8774   94.5683    9.4118 C.3     1  UNL1        0.0323
@<TRIPOS>UNITY_ATOM_ATTR
27 1
charge -1
@<TRIPOS>BOND
     1    19    20    1
     2    20    21   ar
     3    21    22   ar
     4    22    26    1
     5    26    27   ar
     6    26    28   ar
     7    22    23   ar
     8    23    24   ar
     9    24    25   ar
    10    25    13    1
    11    13    14   ar
    12    14    15   ar
    13    15    16   ar
    14    16     1    1
    15     1     2   am
    16     2     3    2
    17     2     4   am
    18     4    29    1
    19    29    30   ar
    20    30    31   ar
    21    31    32   ar
    22    32    33   ar
    23    33    34   ar
    24     4     5    1
    25     5     6    1
    26     6     7    1
    27     7     8    1
    28     8    35    1
    29    35    36    1
    30    36    37   ar
    31    37    38   ar
    32    38    39   ar
    33    39    40   ar
    34    40    41   ar
    35    41    42    1
    36     8     9    1
    37     9    10    1
    38     5    11    1
    39    11    12    2
    40    16    17   ar
    41    17    18   ar
    42    25    20   ar
    43    18    13   ar
    44    11     1   am
    45    34    29   ar
    46    10     5    1
    47    41    36   ar
