@<TRIPOS>MOLECULE
*****
 32 34 0 0 0
SMALL
GASTEIGER

@<TRIPOS>ATOM
      1 C          64.2345   89.8836   15.6838 C.2     1  UNL1       -0.0011
      2 C          63.9869   88.4802   15.2155 C.2     1  UNL1        0.0167
      3 C          64.2702   87.9459   13.8428 C.3     1  UNL1        0.0344
      4 C          63.8709   86.5002   13.8166 C.3     1  UNL1        0.0344
      5 C          63.3408   86.1411   15.1731 C.2     1  UNL1        0.0167
      6 C          62.8289   84.7947   15.5916 C.2     1  UNL1       -0.0011
      7 C          63.4125   87.3648   16.0376 C.2     1  UNL1        0.1877
      8 O          62.9849   87.4569   17.4724 O.2     1  UNL1       -0.2872
      9 C          66.4629   92.8531   14.2815 C.ar    1  UNL1        0.0112
     10 C          65.8800   91.8405   15.2221 C.ar    1  UNL1       -0.0013
     11 C          64.8174   90.8963   14.7431 C.ar    1  UNL1       -0.0006
     12 C          64.3377   90.9647   13.3235 C.ar    1  UNL1       -0.0013
     13 C          64.9206   91.9774   12.3830 C.ar    1  UNL1        0.0112
     14 C          65.9832   92.9216   12.8619 C.ar    1  UNL1        0.1256
     15 O          66.5661   93.9343   11.9213 O.3     1  UNL1       -0.5061
     16 H          66.2664   93.9770   11.0345 H       1  UNL1        0.2922
     17 C          68.4355   93.3952   15.8830 C.3     1  UNL1        0.0051
     18 C          67.5255   93.7973   14.7604 C.3     1  UNL1        0.0294
     19 C          64.4409   92.0459   10.9633 C.3     1  UNL1        0.0294
     20 C          63.3284   91.1510   10.5036 C.3     1  UNL1        0.0051
     21 C          62.8183   83.6588   14.6120 C.ar    1  UNL1       -0.0006
     22 C          63.6870   83.7137   13.3904 C.ar    1  UNL1       -0.0013
     23 C          63.6764   82.5777   12.4109 C.ar    1  UNL1        0.0112
     24 C          62.7971   81.3869   12.6529 C.ar    1  UNL1        0.1256
     25 O          62.7864   80.2509   11.6733 O.3     1  UNL1       -0.5061
     26 C          61.9283   81.3319   13.8745 C.ar    1  UNL1        0.0112
     27 C          61.9390   82.4679   14.8541 C.ar    1  UNL1       -0.0013
     28 H          63.3291   80.2852   10.9102 H       1  UNL1        0.2922
     29 C          64.5451   82.6326   11.1893 C.3     1  UNL1        0.0294
     30 C          64.0792   83.3722    9.9703 C.3     1  UNL1        0.0051
     31 C          61.0490   80.1411   14.1166 C.3     1  UNL1        0.0294
     32 C          59.5609   80.3117   14.1981 C.3     1  UNL1        0.0051
@<TRIPOS>BOND
     1    17    18    1
     2    18     9    1
     3     9    10   ar
     4    10    11   ar
     5    11     1    1
     6     1     2    2
     7     2     3    1
     8     3     4    1
     9     4     5    1
    10     5     6    2
    11     6    21    1
    12    21    22   ar
    13    22    23   ar
    14    23    29    1
    15    29    30    1
    16    23    24   ar
    17    24    25    1
    18    24    26   ar
    19    26    31    1
    20    31    32    1
    21    26    27   ar
    22     5     7    1
    23     7     8    2
    24    11    12   ar
    25    12    13   ar
    26    13    19    1
    27    19    20    1
    28    13    14   ar
    29    14    15    1
    30    14     9   ar
    31     7     2    1
    32    27    21   ar
    33    25    28    1
    34    15    16    1
@<TRIPOS>MOLECULE
*****
 32 34 0 0 0
SMALL
GASTEIGER

@<TRIPOS>ATOM
      1 C          62.8245   84.7840   15.5733 C.2     1  UNL1       -0.0011
      2 C          63.3345   86.1319   15.1574 C.2     1  UNL1        0.0167
      3 C          63.8637   86.4944   13.8014 C.3     1  UNL1        0.0344
      4 C          64.2611   87.9405   13.8304 C.3     1  UNL1        0.0344
      5 C          63.9776   88.4718   15.2042 C.2     1  UNL1        0.0167
      6 C          64.2235   89.8745   15.6752 C.2     1  UNL1       -0.0011
      7 C          63.4049   87.3539   16.0243 C.2     1  UNL1        0.1877
      8 O          62.9776   87.4427   17.4594 O.2     1  UNL1       -0.2872
      9 C          61.9305   81.3219   13.8514 C.ar    1  UNL1        0.0112
     10 C          61.9400   82.4559   14.8332 C.ar    1  UNL1       -0.0013
     11 C          62.8151   83.6499   14.5914 C.ar    1  UNL1       -0.0006
     12 C          63.6808   83.7100   13.3680 C.ar    1  UNL1       -0.0013
     13 C          63.6713   82.5760   12.3862 C.ar    1  UNL1        0.0112
     14 C          62.7962   81.3819   12.6279 C.ar    1  UNL1        0.1256
     15 O          62.7868   80.2479   11.6461 O.3     1  UNL1       -0.5061
     16 H          63.3276   80.2854   10.8818 H       1  UNL1        0.2922
     17 C          59.5686   80.2965   14.1975 C.3     1  UNL1        0.0051
     18 C          61.0554   80.1279   14.0931 C.3     1  UNL1        0.0294
     19 C          64.5370   82.6360   11.1626 C.3     1  UNL1        0.0294
     20 C          64.0618   83.3681    9.9428 C.3     1  UNL1        0.0051
     21 C          64.8047   90.8897   14.7364 C.ar    1  UNL1       -0.0006
     22 C          64.3396   90.9466   13.3115 C.ar    1  UNL1       -0.0013
     23 C          64.9209   91.9619   12.3728 C.ar    1  UNL1        0.0112
     24 C          65.9673   92.9203   12.8588 C.ar    1  UNL1        0.1256
     25 O          66.5487   93.9356   11.9201 O.3     1  UNL1       -0.5061
     26 C          66.4325   92.8635   14.2838 C.ar    1  UNL1        0.0112
     27 C          65.8512   91.8482   15.2225 C.ar    1  UNL1       -0.0013
     28 H          66.2581   93.9712   11.0299 H       1  UNL1        0.2922
     29 C          64.4558   92.0187   10.9478 C.3     1  UNL1        0.0294
     30 C          63.2823   91.1942   10.5084 C.3     1  UNL1        0.0051
     31 C          67.4790   93.8219   14.7699 C.3     1  UNL1        0.0294
     32 C          68.4165   93.4151   15.8679 C.3     1  UNL1        0.0051
@<TRIPOS>BOND
     1    17    18    1
     2    18     9    1
     3     9    10   ar
     4    10    11   ar
     5    11     1    1
     6     1     2    2
     7     2     3    1
     8     3     4    1
     9     4     5    1
    10     5     6    2
    11     6    21    1
    12    21    22   ar
    13    22    23   ar
    14    23    29    1
    15    29    30    1
    16    23    24   ar
    17    24    25    1
    18    24    26   ar
    19    26    31    1
    20    31    32    1
    21    26    27   ar
    22     5     7    1
    23     7     8    2
    24    11    12   ar
    25    12    13   ar
    26    13    19    1
    27    19    20    1
    28    13    14   ar
    29    14    15    1
    30    14     9   ar
    31     7     2    1
    32    27    21   ar
    33    25    28    1
    34    15    16    1
@<TRIPOS>MOLECULE
*****
 32 34 0 0 0
SMALL
GASTEIGER

@<TRIPOS>ATOM
      1 C          64.2394   89.8834   15.6764 C.2     1  UNL1       -0.0011
      2 C          63.9895   88.4800   15.2096 C.2     1  UNL1        0.0167
      3 C          64.2653   87.9455   13.8355 C.3     1  UNL1        0.0344
      4 C          63.8661   86.4998   13.8116 C.3     1  UNL1        0.0344
      5 C          63.3435   86.1407   15.1709 C.2     1  UNL1        0.0167
      6 C          62.8341   84.7943   15.5923 C.2     1  UNL1       -0.0011
      7 C          63.4197   87.3645   16.0350 C.2     1  UNL1        0.1877
      8 O          62.9999   87.4567   17.4721 O.2     1  UNL1       -0.2872
      9 C          66.4535   92.8588   14.2641 C.ar    1  UNL1        0.0112
     10 C          65.8759   91.8462   15.2079 C.ar    1  UNL1       -0.0013
     11 C          64.8170   90.8961   14.7325 C.ar    1  UNL1       -0.0006
     12 C          64.3357   90.9587   13.3132 C.ar    1  UNL1       -0.0013
     13 C          64.9133   91.9713   12.3694 C.ar    1  UNL1        0.0112
     14 C          65.9722   92.9214   12.8448 C.ar    1  UNL1        0.1256
     15 O          66.5498   93.9341   11.9009 O.3     1  UNL1       -0.5061
     16 H          66.2491   93.9732   11.0143 H       1  UNL1        0.2922
     17 C          68.4048   93.4263   15.8829 C.3     1  UNL1        0.0051
     18 C          67.5124   93.8089   14.7396 C.3     1  UNL1        0.0294
     19 C          64.4319   92.0340   10.9500 C.3     1  UNL1        0.0294
     20 C          63.3286   91.1272   10.4916 C.3     1  UNL1        0.0051
     21 C          62.8184   83.6583   14.6129 C.ar    1  UNL1       -0.0006
     22 C          61.9369   82.4696   14.8571 C.ar    1  UNL1       -0.0013
     23 C          61.9212   81.3336   13.8776 C.ar    1  UNL1        0.0112
     24 C          62.7871   81.3864   12.6540 C.ar    1  UNL1        0.1256
     25 O          62.7714   80.2504   11.6744 O.3     1  UNL1       -0.5061
     26 C          63.6687   82.5752   12.4097 C.ar    1  UNL1        0.0112
     27 C          63.6843   83.7111   13.3892 C.ar    1  UNL1       -0.0013
     28 H          62.2208   79.5078   11.8270 H       1  UNL1        0.2922
     29 C          61.0397   80.1448   14.1218 C.3     1  UNL1        0.0294
     30 C          59.5511   80.3164   14.1904 C.3     1  UNL1        0.0051
     31 C          64.5346   82.6280   11.1860 C.3     1  UNL1        0.0294
     32 C          64.0698   83.3731    9.9699 C.3     1  UNL1        0.0051
@<TRIPOS>BOND
     1    17    18    1
     2    18     9    1
     3     9    10   ar
     4    10    11   ar
     5    11     1    1
     6     1     2    2
     7     2     3    1
     8     3     4    1
     9     4     5    1
    10     5     6    2
    11     6    21    1
    12    21    22   ar
    13    22    23   ar
    14    23    29    1
    15    29    30    1
    16    23    24   ar
    17    24    25    1
    18    24    26   ar
    19    26    31    1
    20    31    32    1
    21    26    27   ar
    22     5     7    1
    23     7     8    2
    24    11    12   ar
    25    12    13   ar
    26    13    19    1
    27    19    20    1
    28    13    14   ar
    29    14    15    1
    30    14     9   ar
    31     7     2    1
    32    27    21   ar
    33    25    28    1
    34    15    16    1
@<TRIPOS>MOLECULE
*****
 32 34 0 0 0
SMALL
GASTEIGER

@<TRIPOS>ATOM
      1 C          64.2396   89.8690   15.6712 C.2     1  UNL1       -0.0011
      2 C          63.9892   88.4674   15.1993 C.2     1  UNL1        0.0167
      3 C          64.2507   87.9418   13.8190 C.3     1  UNL1        0.0344
      4 C          63.8565   86.4948   13.7915 C.3     1  UNL1        0.0344
      5 C          63.3513   86.1260   15.1549 C.2     1  UNL1        0.0167
      6 C          62.8519   84.7753   15.5745 C.2     1  UNL1       -0.0011
      7 C          63.4334   87.3452   16.0249 C.2     1  UNL1        0.1877
      8 O          63.0303   87.4276   17.4674 O.2     1  UNL1       -0.2872
      9 C          64.8960   91.9517   12.3573 C.ar    1  UNL1        0.0112
     10 C          64.3333   90.9316   13.3022 C.ar    1  UNL1       -0.0013
     11 C          64.8023   90.8892   14.7263 C.ar    1  UNL1       -0.0006
     12 C          65.8338   91.8670   15.2057 C.ar    1  UNL1       -0.0013
     13 C          66.3965   92.8871   14.2609 C.ar    1  UNL1        0.0112
     14 C          65.9275   92.9295   12.8367 C.ar    1  UNL1        0.1256
     15 O          66.4902   93.9497   11.8918 O.3     1  UNL1       -0.5061
     16 H          67.1346   94.5604   12.1913 H       1  UNL1        0.2922
     17 C          63.2799   91.1326   10.4953 C.3     1  UNL1        0.0051
     18 C          64.4270   91.9941   10.9331 C.3     1  UNL1        0.0294
     19 C          67.4281   93.8649   14.7402 C.3     1  UNL1        0.0294
     20 C          68.3661   93.4834   15.8467 C.3     1  UNL1        0.0051
     21 C          62.8287   83.6449   14.5888 C.ar    1  UNL1       -0.0006
     22 C          61.9526   82.4526   14.8354 C.ar    1  UNL1       -0.0013
     23 C          61.9295   81.3222   13.8497 C.ar    1  UNL1        0.0112
     24 C          62.7824   81.3841   12.6174 C.ar    1  UNL1        0.1256
     25 O          62.7592   80.2537   11.6316 O.3     1  UNL1       -0.5061
     26 C          63.6585   82.5764   12.3707 C.ar    1  UNL1        0.0112
     27 C          63.6816   83.7069   13.3565 C.ar    1  UNL1       -0.0013
     28 H          62.2120   79.5089   11.7856 H       1  UNL1        0.2922
     29 C          61.0534   80.1298   14.0963 C.3     1  UNL1        0.0294
     30 C          59.5652   80.2972   14.1804 C.3     1  UNL1        0.0051
     31 C          64.5114   82.6384   11.1383 C.3     1  UNL1        0.0294
     32 C          64.0482   83.4189    9.9441 C.3     1  UNL1        0.0051
@<TRIPOS>BOND
     1    17    18    1
     2    18     9    1
     3     9    10   ar
     4    10    11   ar
     5    11     1    1
     6     1     2    2
     7     2     3    1
     8     3     4    1
     9     4     5    1
    10     5     6    2
    11     6    21    1
    12    21    22   ar
    13    22    23   ar
    14    23    29    1
    15    29    30    1
    16    23    24   ar
    17    24    25    1
    18    24    26   ar
    19    26    31    1
    20    31    32    1
    21    26    27   ar
    22     5     7    1
    23     7     8    2
    24    11    12   ar
    25    12    13   ar
    26    13    19    1
    27    19    20    1
    28    13    14   ar
    29    14    15    1
    30    14     9   ar
    31     7     2    1
    32    27    21   ar
    33    25    28    1
    34    15    16    1
@<TRIPOS>MOLECULE
*****
 32 34 0 0 0
SMALL
GASTEIGER

@<TRIPOS>ATOM
      1 C          64.2425   89.8697   15.6642 C.2     1  UNL1       -0.0011
      2 C          63.9906   88.4677   15.1940 C.2     1  UNL1        0.0167
      3 C          64.2490   87.9409   13.8135 C.3     1  UNL1        0.0344
      4 C          63.8542   86.4940   13.7881 C.3     1  UNL1        0.0344
      5 C          63.3518   86.1266   15.1528 C.2     1  UNL1        0.0167
      6 C          62.8527   84.7764   15.5747 C.2     1  UNL1       -0.0011
      7 C          63.4362   87.3464   16.0217 C.2     1  UNL1        0.1877
      8 O          63.0362   87.4301   17.4650 O.2     1  UNL1       -0.2872
      9 C          64.8856   91.9555   12.3497 C.ar    1  UNL1        0.0112
     10 C          64.3246   90.9364   13.2966 C.ar    1  UNL1       -0.0013
     11 C          64.8036   90.8889   14.7173 C.ar    1  UNL1       -0.0006
     12 C          65.8435   91.8605   15.1911 C.ar    1  UNL1       -0.0013
     13 C          66.4044   92.8796   14.2442 C.ar    1  UNL1        0.0112
     14 C          65.9255   92.9272   12.8235 C.ar    1  UNL1        0.1256
     15 O          66.4865   93.9464   11.8766 O.3     1  UNL1       -0.5061
     16 H          67.1361   94.5533   12.1725 H       1  UNL1        0.2922
     17 C          63.2938   91.1020   10.4821 C.3     1  UNL1        0.0051
     18 C          64.4066   92.0031   10.9290 C.3     1  UNL1        0.0294
     19 C          67.4444   93.8513   14.7179 C.3     1  UNL1        0.0294
     20 C          68.3438   93.4886   15.8623 C.3     1  UNL1        0.0051
     21 C          62.8270   83.6452   14.5900 C.ar    1  UNL1       -0.0006
     22 C          63.6767   83.7058   13.3555 C.ar    1  UNL1       -0.0013
     23 C          63.6509   82.5746   12.3708 C.ar    1  UNL1        0.0112
     24 C          62.7753   81.3826   12.6207 C.ar    1  UNL1        0.1256
     25 O          62.7494   80.2513   11.6360 O.3     1  UNL1       -0.5061
     26 C          61.9255   81.3218   13.8553 C.ar    1  UNL1        0.0112
     27 C          61.9513   82.4532   14.8399 C.ar    1  UNL1       -0.0013
     28 H          63.2803   80.2891   10.8648 H       1  UNL1        0.2922
     29 C          64.5007   82.6352   11.1363 C.3     1  UNL1        0.0294
     30 C          64.0397   83.4237    9.9464 C.3     1  UNL1        0.0051
     31 C          61.0498   80.1299   14.1052 C.3     1  UNL1        0.0294
     32 C          59.5608   80.2954   14.1792 C.3     1  UNL1        0.0051
@<TRIPOS>BOND
     1    17    18    1
     2    18     9    1
     3     9    10   ar
     4    10    11   ar
     5    11     1    1
     6     1     2    2
     7     2     3    1
     8     3     4    1
     9     4     5    1
    10     5     6    2
    11     6    21    1
    12    21    22   ar
    13    22    23   ar
    14    23    29    1
    15    29    30    1
    16    23    24   ar
    17    24    25    1
    18    24    26   ar
    19    26    31    1
    20    31    32    1
    21    26    27   ar
    22     5     7    1
    23     7     8    2
    24    11    12   ar
    25    12    13   ar
    26    13    19    1
    27    19    20    1
    28    13    14   ar
    29    14    15    1
    30    14     9   ar
    31     7     2    1
    32    27    21   ar
    33    25    28    1
    34    15    16    1
@<TRIPOS>MOLECULE
*****
 32 34 0 0 0
SMALL
GASTEIGER

@<TRIPOS>ATOM
      1 C          62.8622   84.7309   15.5964 C.2     1  UNL1       -0.0011
      2 C          63.3431   86.0848   15.1656 C.2     1  UNL1        0.0167
      3 C          63.8190   86.4556   13.7923 C.3     1  UNL1        0.0344
      4 C          64.2026   87.9057   13.8104 C.3     1  UNL1        0.0344
      5 C          63.9637   88.4310   15.1949 C.2     1  UNL1        0.0167
      6 C          64.2124   89.8352   15.6603 C.2     1  UNL1       -0.0011
      7 C          63.4326   87.3057   16.0325 C.2     1  UNL1        0.1877
      8 O          63.0568   87.3870   17.4824 O.2     1  UNL1       -0.2872
      9 C          63.6652   82.5085   12.4079 C.ar    1  UNL1        0.0112
     10 C          63.6988   83.6404   13.3916 C.ar    1  UNL1       -0.0013
     11 C          62.8287   83.5989   14.6127 C.ar    1  UNL1       -0.0006
     12 C          61.9250   82.4255   14.8501 C.ar    1  UNL1       -0.0013
     13 C          61.8914   81.2936   13.8665 C.ar    1  UNL1        0.0112
     14 C          62.7615   81.3351   12.6453 C.ar    1  UNL1        0.1256
     15 O          62.7279   80.2032   11.6616 O.3     1  UNL1       -0.5061
     16 H          62.1634   79.4702   11.8100 H       1  UNL1        0.2922
     17 C          64.0859   83.3048    9.9709 C.3     1  UNL1        0.0051
     18 C          64.5354   82.5501   11.1868 C.3     1  UNL1        0.0294
     19 C          60.9877   80.1201   14.1039 C.3     1  UNL1        0.0294
     20 C          59.5023   80.3185   14.1688 C.3     1  UNL1        0.0051
     21 C          64.7489   90.8583   14.7035 C.ar    1  UNL1       -0.0006
     22 C          65.7741   91.8514   15.1644 C.ar    1  UNL1       -0.0013
     23 C          66.3105   92.8745   14.2076 C.ar    1  UNL1        0.0112
     24 C          65.8217   92.9045   12.7899 C.ar    1  UNL1        0.1256
     25 O          66.3581   93.9277   11.8330 O.3     1  UNL1       -0.5061
     26 C          64.7964   91.9114   12.3288 C.ar    1  UNL1        0.0112
     27 C          64.2600   90.8883   13.2857 C.ar    1  UNL1       -0.0013
     28 H          66.9985   94.5481   12.1209 H       1  UNL1        0.2922
     29 C          67.3358   93.8677   14.6686 C.3     1  UNL1        0.0294
     30 C          68.2677   93.5176   15.7905 C.3     1  UNL1        0.0051
     31 C          64.3075   91.9413   10.9110 C.3     1  UNL1        0.0294
     32 C          63.2330   90.9930   10.4680 C.3     1  UNL1        0.0051
@<TRIPOS>BOND
     1    17    18    1
     2    18     9    1
     3     9    10   ar
     4    10    11   ar
     5    11     1    1
     6     1     2    2
     7     2     3    1
     8     3     4    1
     9     4     5    1
    10     5     6    2
    11     6    21    1
    12    21    22   ar
    13    22    23   ar
    14    23    29    1
    15    29    30    1
    16    23    24   ar
    17    24    25    1
    18    24    26   ar
    19    26    31    1
    20    31    32    1
    21    26    27   ar
    22     5     7    1
    23     7     8    2
    24    11    12   ar
    25    12    13   ar
    26    13    19    1
    27    19    20    1
    28    13    14   ar
    29    14    15    1
    30    14     9   ar
    31     7     2    1
    32    27    21   ar
    33    25    28    1
    34    15    16    1
@<TRIPOS>MOLECULE
*****
 32 34 0 0 0
SMALL
GASTEIGER

@<TRIPOS>ATOM
      1 C          62.8625   84.7362   15.5970 C.2     1  UNL1       -0.0011
      2 C          63.3442   86.0892   15.1642 C.2     1  UNL1        0.0167
      3 C          63.8234   86.4569   13.7912 C.3     1  UNL1        0.0344
      4 C          64.2067   87.9070   13.8068 C.3     1  UNL1        0.0344
      5 C          63.9644   88.4356   15.1895 C.2     1  UNL1        0.0167
      6 C          64.2117   89.8409   15.6522 C.2     1  UNL1       -0.0011
      7 C          63.4314   87.3121   16.0284 C.2     1  UNL1        0.1877
      8 O          63.0521   87.3968   17.4772 O.2     1  UNL1       -0.2872
      9 C          61.8949   81.2955   13.8720 C.ar    1  UNL1        0.0112
     10 C          61.9260   82.4298   14.8530 C.ar    1  UNL1       -0.0013
     11 C          62.8314   83.6019   14.6159 C.ar    1  UNL1       -0.0006
     12 C          63.7058   83.6399   13.3977 C.ar    1  UNL1       -0.0013
     13 C          63.6747   82.5056   12.4167 C.ar    1  UNL1        0.0112
     14 C          62.7693   81.3335   12.6538 C.ar    1  UNL1        0.1256
     15 O          62.7382   80.1992   11.6727 O.3     1  UNL1       -0.5061
     16 H          63.2844   80.2229   10.9117 H       1  UNL1        0.2922
     17 C          59.5038   80.3225   14.1650 C.3     1  UNL1        0.0051
     18 C          60.9895   80.1234   14.1092 C.3     1  UNL1        0.0294
     19 C          64.5491   82.5435   11.1984 C.3     1  UNL1        0.0294
     20 C          64.0907   83.2695    9.9685 C.3     1  UNL1        0.0051
     21 C          64.7504   90.8618   14.6943 C.ar    1  UNL1       -0.0006
     22 C          65.7765   91.8543   15.1546 C.ar    1  UNL1       -0.0013
     23 C          66.3150   92.8753   14.1967 C.ar    1  UNL1        0.0112
     24 C          65.8275   92.9037   12.7785 C.ar    1  UNL1        0.1256
     25 O          66.3661   93.9246   11.8205 O.3     1  UNL1       -0.5061
     26 C          64.8014   91.9112   12.3180 C.ar    1  UNL1        0.0112
     27 C          64.2628   90.8902   13.2760 C.ar    1  UNL1       -0.0013
     28 H          67.0071   94.5447   12.1080 H       1  UNL1        0.2922
     29 C          67.3412   93.8678   14.6570 C.3     1  UNL1        0.0294
     30 C          68.2613   93.5242   15.7908 C.3     1  UNL1        0.0051
     31 C          64.3138   91.9395   10.8998 C.3     1  UNL1        0.0294
     32 C          63.2042   91.0264   10.4697 C.3     1  UNL1        0.0051
@<TRIPOS>BOND
     1    17    18    1
     2    18     9    1
     3     9    10   ar
     4    10    11   ar
     5    11     1    1
     6     1     2    2
     7     2     3    1
     8     3     4    1
     9     4     5    1
    10     5     6    2
    11     6    21    1
    12    21    22   ar
    13    22    23   ar
    14    23    29    1
    15    29    30    1
    16    23    24   ar
    17    24    25    1
    18    24    26   ar
    19    26    31    1
    20    31    32    1
    21    26    27   ar
    22     5     7    1
    23     7     8    2
    24    11    12   ar
    25    12    13   ar
    26    13    19    1
    27    19    20    1
    28    13    14   ar
    29    14    15    1
    30    14     9   ar
    31     7     2    1
    32    27    21   ar
    33    25    28    1
    34    15    16    1
@<TRIPOS>MOLECULE
*****
 32 34 0 0 0
SMALL
GASTEIGER

@<TRIPOS>ATOM
      1 C          62.8606   84.7410   15.5971 C.2     1  UNL1       -0.0011
      2 C          63.3423   86.0943   15.1653 C.2     1  UNL1        0.0167
      3 C          63.8238   86.4624   13.7932 C.3     1  UNL1        0.0344
      4 C          64.2063   87.9127   13.8097 C.3     1  UNL1        0.0344
      5 C          63.9611   88.4410   15.1920 C.2     1  UNL1        0.0167
      6 C          64.2068   89.8464   15.6552 C.2     1  UNL1       -0.0011
      7 C          63.4272   87.3172   16.0298 C.2     1  UNL1        0.1877
      8 O          63.0451   87.4015   17.4779 O.2     1  UNL1       -0.2872
      9 C          63.6782   82.5124   12.4166 C.ar    1  UNL1        0.0112
     10 C          63.7068   83.6465   13.3979 C.ar    1  UNL1       -0.0013
     11 C          62.8320   83.6068   14.6158 C.ar    1  UNL1       -0.0006
     12 C          61.9287   82.4329   14.8524 C.ar    1  UNL1       -0.0013
     13 C          61.9002   81.2988   13.8711 C.ar    1  UNL1        0.0112
     14 C          62.7750   81.3385   12.6532 C.ar    1  UNL1        0.1256
     15 O          62.7464   80.2043   11.6720 O.3     1  UNL1       -0.5061
     16 H          62.1821   79.4710   11.8198 H       1  UNL1        0.2922
     17 C          64.0979   83.2857    9.9721 C.3     1  UNL1        0.0051
     18 C          64.5530   82.5522   11.1988 C.3     1  UNL1        0.0294
     19 C          60.9969   80.1248   14.1077 C.3     1  UNL1        0.0294
     20 C          59.5105   80.3202   14.1572 C.3     1  UNL1        0.0051
     21 C          64.7466   90.8678   14.6984 C.ar    1  UNL1       -0.0006
     22 C          64.2567   90.9006   13.2811 C.ar    1  UNL1       -0.0013
     23 C          64.7966   91.9220   12.3245 C.ar    1  UNL1        0.0112
     24 C          65.8264   92.9106   12.7851 C.ar    1  UNL1        0.1256
     25 O          66.3663   93.9320   11.8284 O.3     1  UNL1       -0.5061
     26 C          66.3164   92.8778   14.2024 C.ar    1  UNL1        0.0112
     27 C          65.7764   91.8563   15.1591 C.ar    1  UNL1       -0.0013
     28 H          66.0603   93.9526   10.9430 H       1  UNL1        0.2922
     29 C          64.3067   91.9549   10.9071 C.3     1  UNL1        0.0294
     30 C          63.2104   91.0287   10.4708 C.3     1  UNL1        0.0051
     31 C          67.3462   93.8664   14.6631 C.3     1  UNL1        0.0294
     32 C          68.2625   93.5204   15.7992 C.3     1  UNL1        0.0051
@<TRIPOS>BOND
     1    17    18    1
     2    18     9    1
     3     9    10   ar
     4    10    11   ar
     5    11     1    1
     6     1     2    2
     7     2     3    1
     8     3     4    1
     9     4     5    1
    10     5     6    2
    11     6    21    1
    12    21    22   ar
    13    22    23   ar
    14    23    29    1
    15    29    30    1
    16    23    24   ar
    17    24    25    1
    18    24    26   ar
    19    26    31    1
    20    31    32    1
    21    26    27   ar
    22     5     7    1
    23     7     8    2
    24    11    12   ar
    25    12    13   ar
    26    13    19    1
    27    19    20    1
    28    13    14   ar
    29    14    15    1
    30    14     9   ar
    31     7     2    1
    32    27    21   ar
    33    25    28    1
    34    15    16    1
@<TRIPOS>MOLECULE
*****
 32 34 0 0 0
SMALL
GASTEIGER

@<TRIPOS>ATOM
      1 C          63.3727   90.9418   10.8554 C.2     1  UNL1       -0.0011
      2 C          63.2288   89.5250   11.3268 C.2     1  UNL1        0.0167
      3 C          63.9476   88.9048   12.4881 C.3     1  UNL1        0.0344
      4 C          63.5039   87.4762   12.5986 C.3     1  UNL1        0.0344
      5 C          62.5109   87.2134   11.5055 C.2     1  UNL1        0.0167
      6 C          61.8108   85.9128   11.2443 C.2     1  UNL1       -0.0011
      7 C          62.3409   88.4797   10.7195 C.2     1  UNL1        0.1877
      8 O          61.4409   88.6675    9.5342 O.2     1  UNL1       -0.2872
      9 C          65.5826   92.5769   13.7177 C.ar    1  UNL1        0.0112
     10 C          64.6507   91.6410   13.0067 C.ar    1  UNL1       -0.0013
     11 C          64.3047   91.8777   11.5665 C.ar    1  UNL1       -0.0006
     12 C          64.8906   93.0503   10.8373 C.ar    1  UNL1       -0.0013
     13 C          65.8225   93.9862   11.5483 C.ar    1  UNL1        0.0112
     14 C          66.1685   93.7495   12.9885 C.ar    1  UNL1        0.1256
     15 O          67.1005   94.6854   13.6996 O.3     1  UNL1       -0.5061
     16 H          67.4665   95.4179   13.2441 H       1  UNL1        0.2922
     17 C          67.3317   91.9746   15.5419 C.3     1  UNL1        0.0051
     18 C          65.9286   92.3403   15.1580 C.3     1  UNL1        0.0294
     19 C          66.4085   95.1588   10.8191 C.3     1  UNL1        0.0294
     20 C          67.3119   94.9352    9.6428 C.3     1  UNL1        0.0051
     21 C          62.0833   84.7255   12.1195 C.ar    1  UNL1       -0.0006
     22 C          62.3007   83.3747   11.5048 C.ar    1  UNL1       -0.0013
     23 C          62.5732   82.1875   12.3801 C.ar    1  UNL1        0.0112
     24 C          62.6283   82.3510   13.8700 C.ar    1  UNL1        0.1256
     25 O          62.9008   81.1637   14.7454 O.3     1  UNL1       -0.5061
     26 C          62.4108   83.7018   14.4849 C.ar    1  UNL1        0.0112
     27 C          62.1383   84.8891   13.6095 C.ar    1  UNL1       -0.0013
     28 H          63.0366   80.3198   14.3614 H       1  UNL1        0.2922
     29 C          62.7907   80.8366   11.7653 C.3     1  UNL1        0.0294
     30 C          63.1648   80.7230   10.3172 C.3     1  UNL1        0.0051
     31 C          62.4659   83.8654   15.9749 C.3     1  UNL1        0.0294
     32 C          62.5569   85.2367   16.5760 C.3     1  UNL1        0.0051
@<TRIPOS>BOND
     1    17    18    1
     2    18     9    1
     3     9    10   ar
     4    10    11   ar
     5    11     1    1
     6     1     2    2
     7     2     3    1
     8     3     4    1
     9     4     5    1
    10     5     6    2
    11     6    21    1
    12    21    22   ar
    13    22    23   ar
    14    23    29    1
    15    29    30    1
    16    23    24   ar
    17    24    25    1
    18    24    26   ar
    19    26    31    1
    20    31    32    1
    21    26    27   ar
    22     5     7    1
    23     7     8    2
    24    11    12   ar
    25    12    13   ar
    26    13    19    1
    27    19    20    1
    28    13    14   ar
    29    14    15    1
    30    14     9   ar
    31     7     2    1
    32    27    21   ar
    33    25    28    1
    34    15    16    1
