@<TRIPOS>MOLECULE
*****
 40 43 0 0 0
SMALL
GASTEIGER

@<TRIPOS>ATOM
      1 N          62.8995   90.2690   11.9127 N.am    1  UNL1       -0.2781
      2 C          61.6901   90.7823   11.1890 C.3     1  UNL1        0.0957
      3 C          60.8398   89.6048   10.8143 C.3     1  UNL1        0.0504
      4 C          61.5235   88.3638   11.3065 C.3     1  UNL1        0.1495
      5 C          62.7966   88.7743   11.9854 C.2     1  UNL1        0.2435
      6 O          63.7919   87.8520   12.6247 O.2     1  UNL1       -0.2731
      7 C          64.5311   90.8438   13.8512 C.3     1  UNL1        0.0910
      8 C          65.6475   91.6786   14.4051 C.3     1  UNL1        0.0369
      9 C          66.2486   92.7734   13.5745 C.3     1  UNL1        0.0557
     10 C          65.7334   93.0334   12.1899 C.3     1  UNL1        0.0175
     11 C          64.6171   92.1986   11.6360 C.3     1  UNL1        0.0229
     12 C          64.0159   91.1038   12.4667 C.3     1  UNL1        0.0933
     13 C          62.7938   88.9584   16.8806 C.3     1  UNL1        0.0946
     14 C          63.3950   90.0532   16.0499 C.2     1  UNL1        0.2230
     15 O          63.4613   91.4521   16.5872 O.2     1  UNL1       -0.2751
     16 N          63.9299   89.7491   14.6819 N.am    1  UNL1       -0.3043
     17 H          63.8864   88.8309   14.3292 H       1  UNL1        0.1494
     18 N          67.3650   93.6083   14.1283 N.3     1  UNL1       -0.3006
     19 H          66.9319   94.3773   14.6396 H       1  UNL1        0.1231
     20 C          68.3772   92.9924   15.0481 C.3     1  UNL1        0.0420
     21 C          67.9525   93.9274   16.1414 C.3     1  UNL1        0.0158
     22 C          68.8018   92.0573   13.9548 C.3     1  UNL1        0.0158
     23 C          69.3893   92.3765   15.9680 C.3     1  UNL1        0.0158
     24 N          61.0223   86.9590   11.1477 N.pl3   1  UNL1       -0.3122
     25 H          60.1804   86.6851   11.5782 H       1  UNL1        0.1486
     26 C          61.8040   85.9714   10.3329 C.ar    1  UNL1        0.1320
     27 N          61.8137   86.0745    8.8365 N.ar    1  UNL1       -0.2092
     28 C          62.5953   85.0869    8.0218 C.ar    1  UNL1        0.2000
     29 N          63.3672   83.9963    8.7035 N.ar    1  UNL1       -0.2239
     30 C          63.3575   83.8932   10.1999 C.ar    1  UNL1        0.0859
     31 C          64.1293   82.8025   10.8816 C.ar    1  UNL1        0.0224
     32 C          64.1196   82.6995   12.3780 C.ar    1  UNL1        0.0387
     33 C          63.3380   83.6870   13.1928 C.ar    1  UNL1        0.1470
     34 C          62.5661   84.7777   12.5111 C.ar    1  UNL1        0.0415
     35 C          62.5758   84.8807   11.0146 C.ar    1  UNL1        0.0521
     36 O          63.3282   83.5839   14.6892 O.3     1  UNL1       -0.4045
     37 C          63.6408   84.7889   15.5260 C.3     1  UNL1        0.5753
     38 F          63.9534   85.9939   16.3629 F       1  UNL1       -0.1328
     39 F          64.9944   84.8821   14.8864 F       1  UNL1       -0.1328
     40 F          62.2872   84.6958   16.1657 F       1  UNL1       -0.1328
@<TRIPOS>BOND
     1    13    14    1
     2    14    15    2
     3    14    16   am
     4     7    16    1
     5     7     8    1
     6     8     9    1
     7     9    18    1
     8    18    20    1
     9    20    21    1
    10    20    22    1
    11    20    23    1
    12     9    10    1
    13    10    11    1
    14    11    12    1
    15    12     1    1
    16     1     2    1
    17     2     3    1
    18     3     4    1
    19     4    24    1
    20    24    26    1
    21    26    27   ar
    22    27    28   ar
    23    28    29   ar
    24    29    30   ar
    25    30    31   ar
    26    31    32   ar
    27    32    33   ar
    28    33    36    1
    29    36    37    1
    30    37    38    1
    31    37    39    1
    32    37    40    1
    33    33    34   ar
    34    34    35   ar
    35     4     5    1
    36     5     6    2
    37    12     7    1
    38     5     1   am
    39    35    26   ar
    40    35    30   ar
    41    16    17    1
    42    18    19    1
    43    24    25    1
@<TRIPOS>MOLECULE
*****
 40 43 0 0 0
SMALL
GASTEIGER

@<TRIPOS>ATOM
      1 N          62.5075   89.9104   11.0690 N.am    1  UNL1       -0.2781
      2 C          61.2448   90.0109   10.2655 C.3     1  UNL1        0.0957
      3 C          60.5470   88.6847   10.3311 C.3     1  UNL1        0.0504
      4 C          61.3783   87.7646   11.1750 C.3     1  UNL1        0.1495
      5 C          62.5900   88.5221   11.6311 C.2     1  UNL1        0.2435
      6 O          63.6909   87.9856   12.4972 O.2     1  UNL1       -0.2731
      7 C          64.0515   91.2807   12.6465 C.3     1  UNL1        0.0910
      8 C          65.0554   92.3761   12.8518 C.3     1  UNL1        0.0369
      9 C          65.5194   93.1966   11.6850 C.3     1  UNL1        0.0557
     10 C          64.9793   92.9217   10.3128 C.3     1  UNL1        0.0175
     11 C          63.9754   91.8263   10.1075 C.3     1  UNL1        0.0229
     12 C          63.5115   91.0058   11.2743 C.3     1  UNL1        0.0933
     13 C          63.4529   90.0711   16.3786 C.3     1  UNL1        0.0946
     14 C          63.9168   90.8915   15.2117 C.2     1  UNL1        0.2230
     15 O          64.7100   92.1434   15.4433 O.2     1  UNL1       -0.2751
     16 N          63.5876   90.4602   13.8133 N.am    1  UNL1       -0.3043
     17 H          63.0669   89.6385   13.6614 H       1  UNL1        0.1494
     18 N          66.5233   94.2920   11.8902 N.3     1  UNL1       -0.3006
     19 H          67.4129   93.8402   12.1021 H       1  UNL1        0.1231
     20 C          66.7900   95.2801   10.7937 C.3     1  UNL1        0.0420
     21 C          65.9793   96.3094   11.5240 C.3     1  UNL1        0.0158
     22 C          67.6006   94.2509   10.0633 C.3     1  UNL1        0.0158
     23 C          67.0566   96.2683    9.6971 C.3     1  UNL1        0.0158
     24 N          61.0547   86.3376   11.5050 N.pl3   1  UNL1       -0.3122
     25 H          60.1647   86.1027   11.8542 H       1  UNL1        0.1486
     26 C          62.0873   85.2684   11.3028 C.ar    1  UNL1        0.1320
     27 N          62.5347   84.9104    9.9166 N.ar    1  UNL1       -0.2092
     28 C          63.5672   83.8412    9.7145 C.ar    1  UNL1        0.2000
     29 N          64.1522   83.1301   10.8986 N.ar    1  UNL1       -0.2239
     30 C          63.7047   83.4881   12.2848 C.ar    1  UNL1        0.0859
     31 C          64.2897   82.7769   13.4688 C.ar    1  UNL1        0.0224
     32 C          63.8423   83.1349   14.8550 C.ar    1  UNL1        0.0387
     33 C          62.8097   84.2041   15.0572 C.ar    1  UNL1        0.1470
     34 C          62.2247   84.9152   13.8731 C.ar    1  UNL1        0.0415
     35 C          62.6723   84.5572   12.4869 C.ar    1  UNL1        0.0521
     36 O          62.3623   84.5621   16.4434 O.3     1  UNL1       -0.4045
     37 C          62.7080   85.9028   17.0203 C.3     1  UNL1        0.5753
     38 F          63.0537   87.2436   17.5972 F       1  UNL1       -0.1328
     39 F          61.2485   86.2114   17.1778 F       1  UNL1       -0.1328
     40 F          64.1674   85.5943   16.8628 F       1  UNL1       -0.1328
@<TRIPOS>BOND
     1    13    14    1
     2    14    15    2
     3    14    16   am
     4     7    16    1
     5     7     8    1
     6     8     9    1
     7     9    18    1
     8    18    20    1
     9    20    21    1
    10    20    22    1
    11    20    23    1
    12     9    10    1
    13    10    11    1
    14    11    12    1
    15    12     1    1
    16     1     2    1
    17     2     3    1
    18     3     4    1
    19     4    24    1
    20    24    26    1
    21    26    27   ar
    22    27    28   ar
    23    28    29   ar
    24    29    30   ar
    25    30    31   ar
    26    31    32   ar
    27    32    33   ar
    28    33    36    1
    29    36    37    1
    30    37    38    1
    31    37    39    1
    32    37    40    1
    33    33    34   ar
    34    34    35   ar
    35     4     5    1
    36     5     6    2
    37    12     7    1
    38     5     1   am
    39    35    26   ar
    40    35    30   ar
    41    16    17    1
    42    18    19    1
    43    24    25    1
@<TRIPOS>MOLECULE
*****
 40 43 0 0 0
SMALL
GASTEIGER

@<TRIPOS>ATOM
      1 N          61.9929   89.9005   11.4040 N.am    1  UNL1       -0.2781
      2 C          60.7111   90.0055   12.1762 C.3     1  UNL1        0.0957
      3 C          59.8228   88.8721   11.7563 C.3     1  UNL1        0.0504
      4 C          60.5555   88.0665   10.7247 C.3     1  UNL1        0.1495
      5 C          61.8967   88.7021   10.5070 C.2     1  UNL1        0.2435
      6 O          62.9557   88.2234    9.5587 O.2     1  UNL1       -0.2731
      7 C          64.0744   90.7579   12.7010 C.3     1  UNL1        0.0910
      8 C          65.2465   91.6879   12.8073 C.3     1  UNL1        0.0369
      9 C          65.5092   92.6904   11.7228 C.3     1  UNL1        0.0557
     10 C          64.5998   92.7628   10.5321 C.3     1  UNL1        0.0175
     11 C          63.4277   91.8329   10.4259 C.3     1  UNL1        0.0229
     12 C          63.1650   90.8304   11.5103 C.3     1  UNL1        0.0933
     13 C          63.2882   89.2164   16.2725 C.3     1  UNL1        0.0946
     14 C          63.5509   90.2189   15.1881 C.2     1  UNL1        0.2230
     15 O          63.5529   91.6847   15.5062 O.2     1  UNL1       -0.2751
     16 N          63.8117   89.7555   13.7854 N.am    1  UNL1       -0.3043
     17 H          63.8104   88.7934   13.5766 H       1  UNL1        0.1494
     18 N          66.6813   93.6204   11.8290 N.3     1  UNL1       -0.3006
     19 H          67.5125   93.0369   11.9240 H       1  UNL1        0.1231
     20 C          66.9635   94.6001   10.7287 C.3     1  UNL1        0.0420
     21 C          66.2206   95.6621   11.4838 C.3     1  UNL1        0.0158
     22 C          67.7064   93.5381    9.9736 C.3     1  UNL1        0.0158
     23 C          67.2457   95.5798    9.6285 C.3     1  UNL1        0.0158
     24 N          60.0379   86.8407   10.0323 N.pl3   1  UNL1       -0.3122
     25 H          59.0846   86.6039   10.0977 H       1  UNL1        0.1486
     26 C          60.9730   85.9755    9.2403 C.ar    1  UNL1        0.1320
     27 N          60.8668   85.9295    7.7448 N.ar    1  UNL1       -0.2092
     28 C          61.8018   85.0643    6.9528 C.ar    1  UNL1        0.2000
     29 N          62.8430   84.2452    7.6564 N.ar    1  UNL1       -0.2239
     30 C          62.9492   84.2912    9.1519 C.ar    1  UNL1        0.0859
     31 C          63.9904   83.4721    9.8554 C.ar    1  UNL1        0.0224
     32 C          64.0966   83.5181   11.3509 C.ar    1  UNL1        0.0387
     33 C          63.1615   84.3833   12.1430 C.ar    1  UNL1        0.1470
     34 C          62.1203   85.2024   11.4394 C.ar    1  UNL1        0.0415
     35 C          62.0142   85.1564    9.9438 C.ar    1  UNL1        0.0521
     36 O          63.2677   84.4293   13.6385 O.3     1  UNL1       -0.4045
     37 C          64.4528   85.0817   14.2865 C.3     1  UNL1        0.5753
     38 F          65.6379   85.7340   14.9345 F       1  UNL1       -0.1328
     39 F          64.9399   83.7396   14.7467 F       1  UNL1       -0.1328
     40 F          63.9658   86.4237   13.8263 F       1  UNL1       -0.1328
@<TRIPOS>BOND
     1    13    14    1
     2    14    15    2
     3    14    16   am
     4     7    16    1
     5     7     8    1
     6     8     9    1
     7     9    18    1
     8    18    20    1
     9    20    21    1
    10    20    22    1
    11    20    23    1
    12     9    10    1
    13    10    11    1
    14    11    12    1
    15    12     1    1
    16     1     2    1
    17     2     3    1
    18     3     4    1
    19     4    24    1
    20    24    26    1
    21    26    27   ar
    22    27    28   ar
    23    28    29   ar
    24    29    30   ar
    25    30    31   ar
    26    31    32   ar
    27    32    33   ar
    28    33    36    1
    29    36    37    1
    30    37    38    1
    31    37    39    1
    32    37    40    1
    33    33    34   ar
    34    34    35   ar
    35     4     5    1
    36     5     6    2
    37    12     7    1
    38     5     1   am
    39    35    26   ar
    40    35    30   ar
    41    16    17    1
    42    18    19    1
    43    24    25    1
@<TRIPOS>MOLECULE
*****
 40 43 0 0 0
SMALL
GASTEIGER

@<TRIPOS>ATOM
      1 N          63.8218   90.5251   12.4208 N.am    1  UNL1       -0.2781
      2 C          63.3702   90.9809   11.0650 C.3     1  UNL1        0.0957
      3 C          62.5228   89.8958   10.4696 C.3     1  UNL1        0.0504
      4 C          62.4508   88.7693   11.4574 C.3     1  UNL1        0.1495
      5 C          63.2536   89.1582   12.6633 C.2     1  UNL1        0.2435
      6 O          63.4531   88.3263   13.8954 O.2     1  UNL1       -0.2731
      7 C          65.8059   92.1498   12.8376 C.3     1  UNL1        0.0910
      8 C          66.6735   92.9247   13.7846 C.3     1  UNL1        0.0369
      9 C          66.4245   92.8498   15.2619 C.3     1  UNL1        0.0557
     10 C          65.3079   92.0000   15.7921 C.3     1  UNL1        0.0175
     11 C          64.4404   91.2250   14.8451 C.3     1  UNL1        0.0229
     12 C          64.6894   91.3000   13.3678 C.3     1  UNL1        0.0933
     13 C          67.7033   92.1995    9.3523 C.3     1  UNL1        0.0946
     14 C          67.4543   92.1246   10.8296 C.2     1  UNL1        0.2230
     15 O          68.6047   91.9495   11.7761 O.2     1  UNL1       -0.2751
     16 N          66.0549   92.2247   11.3603 N.am    1  UNL1       -0.3043
     17 H          65.2999   92.3397   10.7391 H       1  UNL1        0.1494
     18 N          67.2920   93.6246   16.2090 N.3     1  UNL1       -0.3006
     19 H          67.0142   93.3528   17.1521 H       1  UNL1        0.1231
     20 C          68.7842   93.4890   16.1411 C.3     1  UNL1        0.0420
     21 C          68.9055   94.9593   15.8698 C.3     1  UNL1        0.0158
     22 C          68.6630   92.0188   16.4124 C.3     1  UNL1        0.0158
     23 C          70.2765   93.3534   16.0732 C.3     1  UNL1        0.0158
     24 N          61.7065   87.4802   11.2719 N.pl3   1  UNL1       -0.3122
     25 H          60.8255   87.3555   11.6931 H       1  UNL1        0.1486
     26 C          62.3047   86.3812   10.4445 C.ar    1  UNL1        0.1320
     27 N          62.2282   86.4426    8.9478 N.ar    1  UNL1       -0.2092
     28 C          62.8264   85.3436    8.1206 C.ar    1  UNL1        0.2000
     29 N          63.5011   84.1832    8.7901 N.ar    1  UNL1       -0.2239
     30 C          63.5777   84.1218   10.2868 C.ar    1  UNL1        0.0859
     31 C          64.2524   82.9615   10.9564 C.ar    1  UNL1        0.0224
     32 C          64.3289   82.9001   12.4531 C.ar    1  UNL1        0.0387
     33 C          63.7307   83.9991   13.2804 C.ar    1  UNL1        0.1470
     34 C          63.0560   85.1595   12.6109 C.ar    1  UNL1        0.0415
     35 C          62.9795   85.2208   11.1141 C.ar    1  UNL1        0.0521
     36 O          63.8072   83.9377   14.7772 O.3     1  UNL1       -0.4045
     37 C          63.5380   85.1673   15.5930 C.3     1  UNL1        0.5753
     38 F          63.2688   86.3969   16.4089 F       1  UNL1       -0.1328
     39 F          62.1335   84.6994   15.8347 F       1  UNL1       -0.1328
     40 F          64.9426   85.6351   15.3513 F       1  UNL1       -0.1328
@<TRIPOS>BOND
     1    13    14    1
     2    14    15    2
     3    14    16   am
     4     7    16    1
     5     7     8    1
     6     8     9    1
     7     9    18    1
     8    18    20    1
     9    20    21    1
    10    20    22    1
    11    20    23    1
    12     9    10    1
    13    10    11    1
    14    11    12    1
    15    12     1    1
    16     1     2    1
    17     2     3    1
    18     3     4    1
    19     4    24    1
    20    24    26    1
    21    26    27   ar
    22    27    28   ar
    23    28    29   ar
    24    29    30   ar
    25    30    31   ar
    26    31    32   ar
    27    32    33   ar
    28    33    36    1
    29    36    37    1
    30    37    38    1
    31    37    39    1
    32    37    40    1
    33    33    34   ar
    34    34    35   ar
    35     4     5    1
    36     5     6    2
    37    12     7    1
    38     5     1   am
    39    35    26   ar
    40    35    30   ar
    41    16    17    1
    42    18    19    1
    43    24    25    1
@<TRIPOS>MOLECULE
*****
 40 43 0 0 0
SMALL
GASTEIGER

@<TRIPOS>ATOM
      1 N          64.2440   90.7498   12.3114 N.am    1  UNL1       -0.2781
      2 C          64.5088   90.0537   13.6134 C.3     1  UNL1        0.0957
      3 C          63.6609   88.8172   13.6587 C.3     1  UNL1        0.0504
      4 C          62.8720   88.7491   12.3847 C.3     1  UNL1        0.1495
      5 C          63.2324   89.9435   11.5520 C.2     1  UNL1        0.2435
      6 O          62.6785   90.2738   10.1977 O.2     1  UNL1       -0.2731
      7 C          65.6415   92.8800   12.8207 C.3     1  UNL1        0.0910
      8 C          66.2767   94.1581   12.3591 C.3     1  UNL1        0.0369
      9 C          66.1497   94.5839   10.9264 C.3     1  UNL1        0.0557
     10 C          65.3875   93.7317    9.9554 C.3     1  UNL1        0.0175
     11 C          64.7522   92.4537   10.4171 C.3     1  UNL1        0.0229
     12 C          64.8792   92.0279   11.8497 C.3     1  UNL1        0.0933
     13 C          67.2218   92.1195   16.3808 C.3     1  UNL1        0.0946
     14 C          67.0948   92.5454   14.9481 C.2     1  UNL1        0.2230
     15 O          68.2941   93.0624   14.2103 O.2     1  UNL1       -0.2751
     16 N          65.7685   92.4542   14.2534 N.am    1  UNL1       -0.3043
     17 H          64.9814   92.1149   14.7377 H       1  UNL1        0.1494
     18 N          66.7849   95.8619   10.4646 N.3     1  UNL1       -0.3006
     19 H          67.7926   95.7450   10.5707 H       1  UNL1        0.1231
     20 C          66.5508   96.3536    9.0670 C.3     1  UNL1        0.0420
     21 C          67.9054   95.8516    8.6635 C.3     1  UNL1        0.0158
     22 C          65.1962   96.8557    9.4705 C.3     1  UNL1        0.0158
     23 C          66.3167   96.8453    7.6694 C.3     1  UNL1        0.0158
     24 N          61.8944   87.6751   12.0094 N.pl3   1  UNL1       -0.3122
     25 H          61.0082   87.6448   12.4372 H       1  UNL1        0.1486
     26 C          62.2670   86.6474   10.9822 C.ar    1  UNL1        0.1320
     27 N          61.9724   86.8950    9.5324 N.ar    1  UNL1       -0.2092
     28 C          62.3451   85.8673    8.5053 C.ar    1  UNL1        0.2000
     29 N          63.0123   84.5921    8.9279 N.ar    1  UNL1       -0.2239
     30 C          63.3069   84.3446   10.3777 C.ar    1  UNL1        0.0859
     31 C          63.9741   83.0693   10.8004 C.ar    1  UNL1        0.0224
     32 C          64.2686   82.8218   12.2501 C.ar    1  UNL1        0.0387
     33 C          63.8960   83.8495   13.2774 C.ar    1  UNL1        0.1470
     34 C          63.2288   85.1247   12.8547 C.ar    1  UNL1        0.0415
     35 C          62.9342   85.3722   11.4048 C.ar    1  UNL1        0.0521
     36 O          64.1906   83.6019   14.7271 O.3     1  UNL1       -0.4045
     37 C          63.8416   84.6407   15.7514 C.3     1  UNL1        0.5753
     38 F          63.4927   85.6795   16.7757 F       1  UNL1       -0.1328
     39 F          62.5940   83.8824   16.0954 F       1  UNL1       -0.1328
     40 F          65.0893   85.3990   15.4073 F       1  UNL1       -0.1328
@<TRIPOS>BOND
     1    13    14    1
     2    14    15    2
     3    14    16   am
     4     7    16    1
     5     7     8    1
     6     8     9    1
     7     9    18    1
     8    18    20    1
     9    20    21    1
    10    20    22    1
    11    20    23    1
    12     9    10    1
    13    10    11    1
    14    11    12    1
    15    12     1    1
    16     1     2    1
    17     2     3    1
    18     3     4    1
    19     4    24    1
    20    24    26    1
    21    26    27   ar
    22    27    28   ar
    23    28    29   ar
    24    29    30   ar
    25    30    31   ar
    26    31    32   ar
    27    32    33   ar
    28    33    36    1
    29    36    37    1
    30    37    38    1
    31    37    39    1
    32    37    40    1
    33    33    34   ar
    34    34    35   ar
    35     4     5    1
    36     5     6    2
    37    12     7    1
    38     5     1   am
    39    35    26   ar
    40    35    30   ar
    41    16    17    1
    42    18    19    1
    43    24    25    1
@<TRIPOS>MOLECULE
*****
 40 43 0 0 0
SMALL
GASTEIGER

@<TRIPOS>ATOM
      1 N          64.6549   90.7834   13.0236 N.am    1  UNL1       -0.2781
      2 C          65.0170   90.2364   14.3725 C.3     1  UNL1        0.0957
      3 C          64.2903   88.9370   14.5561 C.3     1  UNL1        0.0504
      4 C          63.4791   88.6810   13.3206 C.3     1  UNL1        0.1495
      5 C          63.7044   89.8221   12.3735 C.2     1  UNL1        0.2435
      6 O          63.0876   89.9751   11.0147 O.2     1  UNL1       -0.2731
      7 C          65.9736   93.0093   13.2605 C.3     1  UNL1        0.0910
      8 C          66.4741   94.2923   12.6660 C.3     1  UNL1        0.0369
      9 C          66.1563   94.6324   11.2401 C.3     1  UNL1        0.0557
     10 C          65.3380   93.6894   10.4086 C.3     1  UNL1        0.0175
     11 C          64.8375   92.4064   11.0031 C.3     1  UNL1        0.0229
     12 C          65.1553   92.0664   12.4291 C.3     1  UNL1        0.0933
     13 C          68.0372   92.1908   16.5501 C.3     1  UNL1        0.0946
     14 C          67.7194   92.5309   15.1242 C.2     1  UNL1        0.2230
     15 O          68.8297   92.7325   14.1359 O.2     1  UNL1       -0.2751
     16 N          66.2914   92.6693   14.6865 N.am    1  UNL1       -0.3043
     17 H          65.5627   92.5370   15.3351 H       1  UNL1        0.1494
     18 N          66.6567   95.9154   10.6455 N.3     1  UNL1       -0.3006
     19 H          67.6742   95.8496   10.6171 H       1  UNL1        0.1231
     20 C          66.2113   96.3307    9.2747 C.3     1  UNL1        0.0420
     21 C          64.9292   96.8550    9.8501 C.3     1  UNL1        0.0158
     22 C          67.4935   95.8064    8.6992 C.3     1  UNL1        0.0158
     23 C          65.7659   96.7461    7.9039 C.3     1  UNL1        0.0158
     24 N          62.5974   87.4925   13.0753 N.pl3   1  UNL1       -0.3122
     25 H          61.6306   87.6170   12.9371 H       1  UNL1        0.1486
     26 C          63.1887   86.1144   13.0407 C.ar    1  UNL1        0.1320
     27 N          63.7439   85.5048   14.2937 N.ar    1  UNL1       -0.2092
     28 C          64.3352   84.1267   14.2591 C.ar    1  UNL1        0.2000
     29 N          64.3712   83.3582   12.9714 N.ar    1  UNL1       -0.2239
     30 C          63.8160   83.9678   11.7184 C.ar    1  UNL1        0.0859
     31 C          63.8520   83.1993   10.4307 C.ar    1  UNL1        0.0224
     32 C          63.2968   83.8089    9.1777 C.ar    1  UNL1        0.0387
     33 C          62.7055   85.1870    9.2123 C.ar    1  UNL1        0.1470
     34 C          62.6694   85.9555   10.5000 C.ar    1  UNL1        0.0415
     35 C          63.2247   85.3459   11.7530 C.ar    1  UNL1        0.0521
     36 O          62.1502   85.7966    7.9593 O.3     1  UNL1       -0.4045
     37 C          61.6207   84.9151    6.8673 C.3     1  UNL1        0.5753
     38 F          61.0911   84.0336    5.7753 F       1  UNL1       -0.1328
     39 F          63.0240   84.5957    6.4446 F       1  UNL1       -0.1328
     40 F          60.2173   85.2345    7.2900 F       1  UNL1       -0.1328
@<TRIPOS>BOND
     1    13    14    1
     2    14    15    2
     3    14    16   am
     4     7    16    1
     5     7     8    1
     6     8     9    1
     7     9    18    1
     8    18    20    1
     9    20    21    1
    10    20    22    1
    11    20    23    1
    12     9    10    1
    13    10    11    1
    14    11    12    1
    15    12     1    1
    16     1     2    1
    17     2     3    1
    18     3     4    1
    19     4    24    1
    20    24    26    1
    21    26    27   ar
    22    27    28   ar
    23    28    29   ar
    24    29    30   ar
    25    30    31   ar
    26    31    32   ar
    27    32    33   ar
    28    33    36    1
    29    36    37    1
    30    37    38    1
    31    37    39    1
    32    37    40    1
    33    33    34   ar
    34    34    35   ar
    35     4     5    1
    36     5     6    2
    37    12     7    1
    38     5     1   am
    39    35    26   ar
    40    35    30   ar
    41    16    17    1
    42    18    19    1
    43    24    25    1
@<TRIPOS>MOLECULE
*****
 40 43 0 0 0
SMALL
GASTEIGER

@<TRIPOS>ATOM
      1 N          62.9581   87.6963   12.0169 N.am    1  UNL1       -0.2781
      2 C          62.3611   88.2938   10.7773 C.3     1  UNL1        0.0957
      3 C          62.4412   89.7869   10.8976 C.3     1  UNL1        0.0504
      4 C          63.0877   90.1121   12.2114 C.3     1  UNL1        0.1495
      5 C          63.4071   88.8201   12.9032 C.2     1  UNL1        0.2435
      6 O          64.0609   88.6769   14.2457 O.2     1  UNL1       -0.2731
      7 C          62.3280   85.2302   11.4962 C.3     1  UNL1        0.0910
      8 C          62.4539   83.7660   11.7967 C.3     1  UNL1        0.0369
      9 C          63.3358   83.3038   12.9185 C.3     1  UNL1        0.0557
     10 C          64.0918   84.3058   13.7399 C.3     1  UNL1        0.0175
     11 C          63.9659   85.7700   13.4393 C.3     1  UNL1        0.0229
     12 C          63.0840   86.2322   12.3175 C.3     1  UNL1        0.0933
     13 C          61.0382   86.0485    7.8333 C.3     1  UNL1        0.0946
     14 C          61.9201   85.5863    8.9551 C.2     1  UNL1        0.2230
     15 O          63.2760   85.0180    8.6578 O.2     1  UNL1       -0.2751
     16 N          61.4461   85.6924   10.3743 N.am    1  UNL1       -0.3043
     17 H          60.5561   86.0654   10.5695 H       1  UNL1        0.1494
     18 N          63.4617   81.8397   13.2192 N.3     1  UNL1       -0.3006
     19 H          64.1134   81.7543   13.9993 H       1  UNL1        0.1231
     20 C          62.2450   81.0410   13.5820 C.3     1  UNL1        0.0420
     21 C          61.9129   82.0347   14.6555 C.3     1  UNL1        0.0158
     22 C          62.5771   80.0474   12.5085 C.3     1  UNL1        0.0158
     23 C          61.0282   80.2424   13.9448 C.3     1  UNL1        0.0158
     24 N          63.3658   91.4879   12.7406 N.pl3   1  UNL1       -0.3122
     25 H          63.0184   92.2774   12.2661 H       1  UNL1        0.1486
     26 C          64.1734   91.6607   13.9928 C.ar    1  UNL1        0.1320
     27 N          63.4985   91.6219   15.3318 N.ar    1  UNL1       -0.2092
     28 C          64.3061   91.7947   16.5840 C.ar    1  UNL1        0.2000
     29 N          65.7886   92.0063   16.4971 N.ar    1  UNL1       -0.2239
     30 C          66.4634   92.0450   15.1581 C.ar    1  UNL1        0.0859
     31 C          67.9459   92.2566   15.0713 C.ar    1  UNL1        0.0224
     32 C          68.6208   92.2954   13.7323 C.ar    1  UNL1        0.0387
     33 C          67.8132   92.1226   12.4800 C.ar    1  UNL1        0.1470
     34 C          66.3307   91.9110   12.5669 C.ar    1  UNL1        0.0415
     35 C          65.6559   91.8722   13.9060 C.ar    1  UNL1        0.0521
     36 O          68.4881   92.1614   11.1410 O.3     1  UNL1       -0.4045
     37 C          67.7945   92.7909    9.9695 C.3     1  UNL1        0.5753
     38 F          67.1008   93.4205    8.7979 F       1  UNL1       -0.1328
     39 F          68.0622   91.5627    9.1510 F       1  UNL1       -0.1328
     40 F          67.5268   94.0191   10.7880 F       1  UNL1       -0.1328
@<TRIPOS>BOND
     1    13    14    1
     2    14    15    2
     3    14    16   am
     4     7    16    1
     5     7     8    1
     6     8     9    1
     7     9    18    1
     8    18    20    1
     9    20    21    1
    10    20    22    1
    11    20    23    1
    12     9    10    1
    13    10    11    1
    14    11    12    1
    15    12     1    1
    16     1     2    1
    17     2     3    1
    18     3     4    1
    19     4    24    1
    20    24    26    1
    21    26    27   ar
    22    27    28   ar
    23    28    29   ar
    24    29    30   ar
    25    30    31   ar
    26    31    32   ar
    27    32    33   ar
    28    33    36    1
    29    36    37    1
    30    37    38    1
    31    37    39    1
    32    37    40    1
    33    33    34   ar
    34    34    35   ar
    35     4     5    1
    36     5     6    2
    37    12     7    1
    38     5     1   am
    39    35    26   ar
    40    35    30   ar
    41    16    17    1
    42    18    19    1
    43    24    25    1
@<TRIPOS>MOLECULE
*****
 40 43 0 0 0
SMALL
GASTEIGER

@<TRIPOS>ATOM
      1 N          62.3112   87.2015   11.3136 N.am    1  UNL1       -0.2781
      2 C          61.1981   87.7348   10.4611 C.3     1  UNL1        0.0957
      3 C          61.1155   89.2164   10.6803 C.3     1  UNL1        0.0504
      4 C          62.1775   89.5989   11.6681 C.3     1  UNL1        0.1495
      5 C          62.9165   88.3536   12.0596 C.2     1  UNL1        0.2435
      6 O          64.0600   88.2743   13.0271 O.2     1  UNL1       -0.2731
      7 C          62.9702   85.1364   12.7457 C.3     1  UNL1        0.0910
      8 C          63.4022   83.7028   12.8363 C.3     1  UNL1        0.0369
      9 C          63.6072   82.9008   11.5854 C.3     1  UNL1        0.0557
     10 C          63.3803   83.5324   10.2439 C.3     1  UNL1        0.0175
     11 C          62.9483   84.9660   10.1533 C.3     1  UNL1        0.0229
     12 C          62.7432   85.7680   11.4042 C.3     1  UNL1        0.0933
     13 C          63.6502   86.8195   16.2748 C.3     1  UNL1        0.0946
     14 C          63.8553   86.0175   15.0239 C.2     1  UNL1        0.2230
     15 O          65.1505   85.2947   14.8003 O.2     1  UNL1       -0.2751
     16 N          62.7651   85.9383   13.9966 N.am    1  UNL1       -0.3043
     17 H          61.9150   86.4127   14.1434 H       1  UNL1        0.1494
     18 N          64.0392   81.4672   11.6759 N.3     1  UNL1       -0.3006
     19 H          64.9268   81.4583   12.1783 H       1  UNL1        0.1231
     20 C          63.1535   80.4576   12.3438 C.3     1  UNL1        0.0420
     21 C          62.6599   80.0032   11.0022 C.3     1  UNL1        0.0158
     22 C          63.6471   80.9121   13.6853 C.3     1  UNL1        0.0158
     23 C          62.2677   79.4480   13.0117 C.3     1  UNL1        0.0158
     24 N          62.4522   90.9834   12.1755 N.pl3   1  UNL1       -0.3122
     25 H          61.9783   91.7535   11.7860 H       1  UNL1        0.1486
     26 C          63.4490   91.1948   13.2764 C.ar    1  UNL1        0.1320
     27 N          63.0895   90.8474   14.6906 N.ar    1  UNL1       -0.2092
     28 C          64.0863   91.0587   15.7913 C.ar    1  UNL1        0.2000
     29 N          65.4426   91.6174   15.4779 N.ar    1  UNL1       -0.2239
     30 C          65.8022   91.9647   14.0637 C.ar    1  UNL1        0.0859
     31 C          67.1585   92.5234   13.7502 C.ar    1  UNL1        0.0224
     32 C          67.5180   92.8707   12.3360 C.ar    1  UNL1        0.0387
     33 C          66.5212   92.6594   11.2352 C.ar    1  UNL1        0.1470
     34 C          65.1649   92.1007   11.5486 C.ar    1  UNL1        0.0415
     35 C          64.8054   91.7534   12.9629 C.ar    1  UNL1        0.0521
     36 O          66.8808   93.0067    9.8210 O.3     1  UNL1       -0.4045
     37 C          68.2411   92.6670    9.2879 C.3     1  UNL1        0.5753
     38 F          69.6014   92.3273    8.7548 F       1  UNL1       -0.1328
     39 F          67.8839   91.2103    9.3048 F       1  UNL1       -0.1328
     40 F          68.5983   94.1238    9.2710 F       1  UNL1       -0.1328
@<TRIPOS>BOND
     1    13    14    1
     2    14    15    2
     3    14    16   am
     4     7    16    1
     5     7     8    1
     6     8     9    1
     7     9    18    1
     8    18    20    1
     9    20    21    1
    10    20    22    1
    11    20    23    1
    12     9    10    1
    13    10    11    1
    14    11    12    1
    15    12     1    1
    16     1     2    1
    17     2     3    1
    18     3     4    1
    19     4    24    1
    20    24    26    1
    21    26    27   ar
    22    27    28   ar
    23    28    29   ar
    24    29    30   ar
    25    30    31   ar
    26    31    32   ar
    27    32    33   ar
    28    33    36    1
    29    36    37    1
    30    37    38    1
    31    37    39    1
    32    37    40    1
    33    33    34   ar
    34    34    35   ar
    35     4     5    1
    36     5     6    2
    37    12     7    1
    38     5     1   am
    39    35    26   ar
    40    35    30   ar
    41    16    17    1
    42    18    19    1
    43    24    25    1
