@<TRIPOS>MOLECULE
*****
 37 39 0 0 0
SMALL
GASTEIGER

@<TRIPOS>ATOM
      1 C          63.6781   86.2499   15.2720 C.ar    1  UNL1        0.0528
      2 C          64.3602   87.3991   14.5908 C.ar    1  UNL1        0.0167
      3 C          64.2579   88.7802   15.1669 C.ar    1  UNL1        0.0505
      4 C          63.4735   89.0121   16.4243 C.ar    1  UNL1        0.0170
      5 C          62.7914   87.8629   17.1055 C.ar    1  UNL1        0.0307
      6 C          62.8937   86.4818   16.5293 C.ar    1  UNL1        0.1402
      7 F          62.2116   85.3325   17.2105 F       1  UNL1       -0.2044
      8 C          63.9834   84.5602   16.1497 C.3     1  UNL1        0.0607
      9 C          63.7804   84.8687   14.6958 C.3     1  UNL1        0.2223
     10 C          63.5419   85.6568   13.4421 C.3     1  UNL1        0.1959
     11 O          63.4762   84.9567   12.1172 O.3     1  UNL1       -0.3357
     12 C          63.6490   83.4683   12.0460 C.3     1  UNL1        0.2740
     13 C          63.7513   82.0872   11.4699 C.3     1  UNL1        0.0512
     14 C          63.8875   82.6802   13.2997 C.2     1  UNL1        0.3217
     15 N          64.0603   81.1918   13.2285 N.pl3   1  UNL1       -0.2480
     16 N          63.9532   83.3803   14.6247 N.2     1  UNL1       -0.0692
     17 H          64.0171   80.7323   12.3589 H       1  UNL1        0.2882
     18 H          64.2168   80.6745   14.0514 H       1  UNL1        0.2882
     19 C          63.4461   83.7768   10.5921 C.3     1  UNL1        0.4305
     20 F          63.2431   84.0853    9.1383 F       1  UNL1       -0.1670
     21 F          64.7493   83.1084   10.2684 F       1  UNL1       -0.1670
     22 F          62.1429   84.4453   10.9159 F       1  UNL1       -0.1670
     23 N          64.9400   89.9294   14.4857 N.am    1  UNL1       -0.2791
     24 C          64.2022   90.7386   13.4606 C.2     1  UNL1        0.2681
     25 O          62.7823   90.3985   13.1167 O.2     1  UNL1       -0.2681
     26 H          65.8719   90.1526   14.7115 H       1  UNL1        0.1552
     27 C          64.8843   91.8878   12.7794 C.ar    1  UNL1        0.1455
     28 N          65.7448   92.8261   13.5726 N.ar    1  UNL1       -0.2352
     29 C          66.4269   93.9754   12.8913 C.ar    1  UNL1        0.1360
     30 C          66.2484   94.1863   11.4170 C.ar    1  UNL1        0.1642
     31 C          65.3878   93.2480   10.6239 C.ar    1  UNL1        0.0518
     32 C          64.7058   92.0988   11.3051 C.ar    1  UNL1        0.0828
     33 CL         63.8452   91.1605   10.5120 Cl      1  UNL1       -0.0804
     34 O          66.9304   95.3356   10.7358 O.3     1  UNL1       -0.4220
     35 C          67.6934   95.1081    9.4645 C.3     1  UNL1        0.5087
     36 F          68.4727   93.8406    9.2740 F       1  UNL1       -0.1550
     37 F          67.6771   96.1481    8.3838 F       1  UNL1       -0.1550
@<TRIPOS>BOND
     1     9     8    1
     2     9     1    1
     3     1     2   ar
     4     2     3   ar
     5     3    23    1
     6    23    24   am
     7    24    25    2
     8    24    27    1
     9    27    28   ar
    10    28    29   ar
    11    29    30   ar
    12    30    34    1
    13    34    35    1
    14    35    36    1
    15    35    37    1
    16    30    31   ar
    17    31    32   ar
    18    32    33    1
    19     3     4   ar
    20     4     5   ar
    21     5     6   ar
    22     6     7    1
    23     9    10    1
    24    10    11    1
    25    11    12    1
    26    12    13    1
    27    12    19    1
    28    19    20    1
    29    19    21    1
    30    19    22    1
    31    12    14    1
    32    14    15    1
    33    14    16    2
    34    16     9    1
    35     6     1   ar
    36    32    27   ar
    37    23    26    1
    38    15    17    1
    39    15    18    1
@<TRIPOS>MOLECULE
*****
 37 39 0 0 0
SMALL
GASTEIGER

@<TRIPOS>ATOM
      1 C          63.8819   89.0451   14.7425 C.ar    1  UNL1        0.0528
      2 C          63.9064   87.6386   14.2218 C.ar    1  UNL1        0.0167
      3 C          63.5470   86.4976   15.1266 C.ar    1  UNL1        0.0505
      4 C          63.1631   86.7630   16.5522 C.ar    1  UNL1        0.0170
      5 C          63.1387   88.1694   17.0729 C.ar    1  UNL1        0.0307
      6 C          63.4981   89.3105   16.1681 C.ar    1  UNL1        0.1402
      7 F          63.4737   90.7171   16.6888 F       1  UNL1       -0.2044
      8 C          63.0109   89.6813   13.1440 C.3     1  UNL1        0.0607
      9 C          64.2414   90.1862   13.8377 C.3     1  UNL1        0.2223
     10 C          65.3469   90.2948   14.8455 C.3     1  UNL1        0.1959
     11 O          66.3846   91.3692   14.7077 O.3     1  UNL1       -0.3357
     12 C          66.3166   92.3350   13.5619 C.3     1  UNL1        0.2740
     13 C          66.6760   93.4760   12.6571 C.3     1  UNL1        0.0512
     14 C          65.2111   92.2264   12.5541 C.2     1  UNL1        0.3217
     15 N          65.1431   93.1921   11.4083 N.pl3   1  UNL1       -0.2480
     16 N          64.1734   91.1520   12.6919 N.2     1  UNL1       -0.0692
     17 H          65.8242   93.8973   11.3178 H       1  UNL1        0.2882
     18 H          64.4175   93.1209   10.7468 H       1  UNL1        0.2882
     19 C          67.5471   92.8399   14.2556 C.3     1  UNL1        0.4305
     20 F          68.7776   93.3448   14.9492 F       1  UNL1       -0.1670
     21 F          66.7350   93.9166   14.9123 F       1  UNL1       -0.1670
     22 F          68.3591   91.7631   13.5989 F       1  UNL1       -0.1670
     23 N          63.5714   85.0910   14.6059 N.am    1  UNL1       -0.2791
     24 C          62.7921   84.7333   13.3751 C.2     1  UNL1        0.2681
     25 O          61.9884   85.7821   12.6651 O.2     1  UNL1       -0.2681
     26 H          64.0989   84.4027   15.0719 H       1  UNL1        0.1552
     27 C          62.8165   83.3268   12.8544 C.ar    1  UNL1        0.1455
     28 N          62.4939   82.1826   13.7692 N.ar    1  UNL1       -0.2352
     29 C          62.5183   80.7761   13.2484 C.ar    1  UNL1        0.1360
     30 C          62.8654   80.5138   11.8129 C.ar    1  UNL1        0.1642
     31 C          63.1880   81.6579   10.8981 C.ar    1  UNL1        0.0518
     32 C          63.1636   83.0644   11.4188 C.ar    1  UNL1        0.0828
     33 CL         63.4862   84.2086   10.5041 Cl      1  UNL1       -0.0804
     34 O          62.8898   79.1073   11.2922 O.3     1  UNL1       -0.4220
     35 C          62.9415   78.8555    9.8144 C.3     1  UNL1        0.5087
     36 F          63.9677   77.9190    9.2486 F       1  UNL1       -0.1550
     37 F          61.9671   79.5400    8.9023 F       1  UNL1       -0.1550
@<TRIPOS>BOND
     1     9     8    1
     2     9     1    1
     3     1     2   ar
     4     2     3   ar
     5     3    23    1
     6    23    24   am
     7    24    25    2
     8    24    27    1
     9    27    28   ar
    10    28    29   ar
    11    29    30   ar
    12    30    34    1
    13    34    35    1
    14    35    36    1
    15    35    37    1
    16    30    31   ar
    17    31    32   ar
    18    32    33    1
    19     3     4   ar
    20     4     5   ar
    21     5     6   ar
    22     6     7    1
    23     9    10    1
    24    10    11    1
    25    11    12    1
    26    12    13    1
    27    12    19    1
    28    19    20    1
    29    19    21    1
    30    19    22    1
    31    12    14    1
    32    14    15    1
    33    14    16    2
    34    16     9    1
    35     6     1   ar
    36    32    27   ar
    37    23    26    1
    38    15    17    1
    39    15    18    1
@<TRIPOS>MOLECULE
*****
 37 39 0 0 0
SMALL
GASTEIGER

@<TRIPOS>ATOM
      1 C          61.9785   86.9030   10.4190 C.ar    1  UNL1        0.0528
      2 C          62.8496   87.9290   11.0811 C.ar    1  UNL1        0.0167
      3 C          62.4101   89.3620   11.1375 C.ar    1  UNL1        0.0505
      4 C          61.0996   89.7690   10.5318 C.ar    1  UNL1        0.0170
      5 C          60.2285   88.7430    9.8696 C.ar    1  UNL1        0.0307
      6 C          60.6680   87.3100    9.8132 C.ar    1  UNL1        0.1402
      7 F          59.7970   86.2838    9.1511 F       1  UNL1       -0.2044
      8 C          62.5971   85.8541    8.9237 C.3     1  UNL1        0.0607
      9 C          62.4180   85.4698   10.3625 C.3     1  UNL1        0.2223
     10 C          62.0863   85.5833   11.8209 C.3     1  UNL1        0.1959
     11 O          62.2562   84.3971   12.7232 O.3     1  UNL1       -0.3357
     12 C          62.7578   83.0975   12.1670 C.3     1  UNL1        0.2740
     13 C          63.1973   81.6645   12.1106 C.3     1  UNL1        0.0512
     14 C          63.0896   82.9840   10.7086 C.2     1  UNL1        0.3217
     15 N          63.5913   81.6844   10.1524 N.pl3   1  UNL1       -0.2480
     16 N          62.9197   84.1702    9.8063 N.2     1  UNL1       -0.0692
     17 H          63.7028   80.9059   10.7446 H       1  UNL1        0.2882
     18 H          63.8090   81.6099    9.1952 H       1  UNL1        0.2882
     19 C          62.5787   82.7132   13.6059 C.3     1  UNL1        0.4305
     20 F          62.3996   82.3290   15.0448 F       1  UNL1       -0.1670
     21 F          61.5664   81.6816   13.2044 F       1  UNL1       -0.1670
     22 F          63.5909   83.7448   14.0074 F       1  UNL1       -0.1670
     23 N          63.2811   90.3882   11.7997 N.am    1  UNL1       -0.2791
     24 C          64.0380   90.0376   13.0464 C.2     1  UNL1        0.2681
     25 O          63.9238   88.6608   13.6309 O.2     1  UNL1       -0.2681
     26 H          63.3561   91.2918   11.4160 H       1  UNL1        0.1552
     27 C          64.9090   91.0636   13.7086 C.ar    1  UNL1        0.1455
     28 N          65.9026   91.8406   12.8967 N.ar    1  UNL1       -0.2352
     29 C          66.7736   92.8667   13.5589 C.ar    1  UNL1        0.1360
     30 C          66.6511   93.1158   15.0330 C.ar    1  UNL1        0.1642
     31 C          65.6575   92.3388   15.8449 C.ar    1  UNL1        0.0518
     32 C          64.7864   91.3128   15.1827 C.ar    1  UNL1        0.0828
     33 CL         63.7929   90.5359   15.9946 Cl      1  UNL1       -0.0804
     34 O          67.5221   94.1418   15.6951 O.3     1  UNL1       -0.4220
     35 C          68.9203   93.7863   16.1058 C.3     1  UNL1        0.5087
     36 F          69.2365   92.3929   16.5624 F       1  UNL1       -0.1550
     37 F          70.0023   94.8241   16.0597 F       1  UNL1       -0.1550
@<TRIPOS>BOND
     1     9     8    1
     2     9     1    1
     3     1     2   ar
     4     2     3   ar
     5     3    23    1
     6    23    24   am
     7    24    25    2
     8    24    27    1
     9    27    28   ar
    10    28    29   ar
    11    29    30   ar
    12    30    34    1
    13    34    35    1
    14    35    36    1
    15    35    37    1
    16    30    31   ar
    17    31    32   ar
    18    32    33    1
    19     3     4   ar
    20     4     5   ar
    21     5     6   ar
    22     6     7    1
    23     9    10    1
    24    10    11    1
    25    11    12    1
    26    12    13    1
    27    12    19    1
    28    19    20    1
    29    19    21    1
    30    19    22    1
    31    12    14    1
    32    14    15    1
    33    14    16    2
    34    16     9    1
    35     6     1   ar
    36    32    27   ar
    37    23    26    1
    38    15    17    1
    39    15    18    1
@<TRIPOS>MOLECULE
*****
 37 39 0 0 0
SMALL
GASTEIGER

@<TRIPOS>ATOM
      1 C          61.9767   86.8866   10.3408 C.ar    1  UNL1        0.0528
      2 C          62.8422   87.9259   10.9893 C.ar    1  UNL1        0.0167
      3 C          62.4027   89.3599   11.0124 C.ar    1  UNL1        0.0505
      4 C          61.0977   89.7545   10.3870 C.ar    1  UNL1        0.0170
      5 C          60.2321   88.7152    9.7385 C.ar    1  UNL1        0.0307
      6 C          60.6716   87.2812    9.7154 C.ar    1  UNL1        0.1402
      7 F          59.8061   86.2418    9.0669 F       1  UNL1       -0.2044
      8 C          62.6008   85.8050    8.8714 C.3     1  UNL1        0.0607
      9 C          62.4162   85.4526   10.3177 C.3     1  UNL1        0.2223
     10 C          62.0789   85.5982   11.7720 C.3     1  UNL1        0.1959
     11 O          62.2452   84.4323   12.7009 O.3     1  UNL1       -0.3357
     12 C          62.7488   83.1206   12.1755 C.3     1  UNL1        0.2740
     13 C          63.1883   81.6867   12.1523 C.3     1  UNL1        0.0512
     14 C          63.0861   82.9750   10.7212 C.2     1  UNL1        0.3217
     15 N          63.5897   81.6633   10.1958 N.pl3   1  UNL1       -0.2480
     16 N          62.9198   84.1409    9.7923 N.2     1  UNL1       -0.0692
     17 H          63.6989   80.8981   10.8054 H       1  UNL1        0.2882
     18 H          63.8111   81.5678    9.2412 H       1  UNL1        0.2882
     19 C          62.5642   82.7682   13.6218 C.3     1  UNL1        0.4305
     20 F          62.3795   82.4158   15.0681 F       1  UNL1       -0.1670
     21 F          63.5383   83.8417   14.0077 F       1  UNL1       -0.1670
     22 F          61.5901   81.6948   13.2358 F       1  UNL1       -0.1670
     23 N          63.2683   90.3993   11.6610 N.am    1  UNL1       -0.2791
     24 C          63.9939   90.0825   12.9350 C.2     1  UNL1        0.2681
     25 O          63.8540   88.7263   13.5604 O.2     1  UNL1       -0.2681
     26 H          63.3601   91.2894   11.2504 H       1  UNL1        0.1552
     27 C          64.8594   91.1218   13.5835 C.ar    1  UNL1        0.1455
     28 N          65.0155   91.1434   15.0752 N.ar    1  UNL1       -0.2352
     29 C          65.8811   92.1828   15.7237 C.ar    1  UNL1        0.1360
     30 C          66.5905   93.2005   14.8806 C.ar    1  UNL1        0.1642
     31 C          66.4343   93.1790   13.3889 C.ar    1  UNL1        0.0518
     32 C          65.5688   92.1396   12.7403 C.ar    1  UNL1        0.0828
     33 CL         65.4126   92.1181   11.2486 Cl      1  UNL1       -0.0804
     34 O          67.4560   94.2399   15.5291 O.3     1  UNL1       -0.4220
     35 C          68.8290   93.8774   16.0122 C.3     1  UNL1        0.5087
     36 F          69.1035   92.4939   16.5228 F       1  UNL1       -0.1550
     37 F          69.9275   94.8984   15.9848 F       1  UNL1       -0.1550
@<TRIPOS>BOND
     1     9     8    1
     2     9     1    1
     3     1     2   ar
     4     2     3   ar
     5     3    23    1
     6    23    24   am
     7    24    25    2
     8    24    27    1
     9    27    28   ar
    10    28    29   ar
    11    29    30   ar
    12    30    34    1
    13    34    35    1
    14    35    36    1
    15    35    37    1
    16    30    31   ar
    17    31    32   ar
    18    32    33    1
    19     3     4   ar
    20     4     5   ar
    21     5     6   ar
    22     6     7    1
    23     9    10    1
    24    10    11    1
    25    11    12    1
    26    12    13    1
    27    12    19    1
    28    19    20    1
    29    19    21    1
    30    19    22    1
    31    12    14    1
    32    14    15    1
    33    14    16    2
    34    16     9    1
    35     6     1   ar
    36    32    27   ar
    37    23    26    1
    38    15    17    1
    39    15    18    1
@<TRIPOS>MOLECULE
*****
 37 39 0 0 0
SMALL
GASTEIGER

@<TRIPOS>ATOM
      1 C          62.1372   89.9018   11.2686 C.ar    1  UNL1        0.0528
      2 C          62.3479   88.4198   11.1729 C.ar    1  UNL1        0.0167
      3 C          61.1707   87.4910   11.2103 C.ar    1  UNL1        0.0505
      4 C          59.7828   88.0441   11.3433 C.ar    1  UNL1        0.0170
      5 C          59.5721   89.5261   11.4389 C.ar    1  UNL1        0.0307
      6 C          60.7493   90.4550   11.4016 C.ar    1  UNL1        0.1402
      7 F          60.5385   91.9371   11.4973 F       1  UNL1       -0.2044
      8 C          62.8927   90.8867    9.7928 C.3     1  UNL1        0.0607
      9 C          63.3144   90.8307   11.2312 C.3     1  UNL1        0.2223
     10 C          63.3273   90.4522   12.6826 C.3     1  UNL1        0.1959
     11 O          64.3708   91.0220   13.5971 O.3     1  UNL1       -0.3357
     12 C          65.4016   91.9703   13.0601 C.3     1  UNL1        0.2740
     13 C          66.5787   92.8992   13.0227 C.3     1  UNL1        0.0512
     14 C          65.3887   92.3489   11.6088 C.2     1  UNL1        0.3217
     15 N          66.4194   93.2972   11.0718 N.pl3   1  UNL1       -0.2480
     16 N          64.3451   91.7791   10.6943 N.2     1  UNL1       -0.0692
     17 H          67.1044   93.6712   11.6720 H       1  UNL1        0.2882
     18 H          66.4110   93.5457   10.1192 H       1  UNL1        0.2882
     19 C          65.8233   91.9144   14.4986 C.3     1  UNL1        0.4305
     20 F          66.2450   91.8584   15.9370 F       1  UNL1       -0.1670
     21 F          65.9828   93.4059   14.5098 F       1  UNL1       -0.1670
     22 F          65.6637   90.4230   14.4873 F       1  UNL1       -0.1670
     23 N          61.3814   86.0089   11.1146 N.am    1  UNL1       -0.2791
     24 C          62.3596   85.3300   12.0269 C.2     1  UNL1        0.2681
     25 O          63.1270   86.1332   13.0349 O.2     1  UNL1       -0.2681
     26 H          60.8777   85.4817   10.4530 H       1  UNL1        0.1552
     27 C          62.5703   83.8480   11.9313 C.ar    1  UNL1        0.1455
     28 N          62.1413   82.9552   13.0577 N.ar    1  UNL1       -0.2352
     29 C          62.3521   81.4731   12.9621 C.ar    1  UNL1        0.1360
     30 C          62.9918   80.8839   11.7400 C.ar    1  UNL1        0.1642
     31 C          63.4208   81.7766   10.6135 C.ar    1  UNL1        0.0518
     32 C          63.2101   83.2587   10.7091 C.ar    1  UNL1        0.0828
     33 CL         63.6390   84.1514    9.5827 Cl      1  UNL1       -0.0804
     34 O          63.2025   79.4018   11.6443 O.3     1  UNL1       -0.4220
     35 C          62.8293   78.6707   10.3889 C.3     1  UNL1        0.5087
     36 F          62.4054   79.4382    9.1718 F       1  UNL1       -0.1550
     37 F          62.8799   77.1721   10.3506 F       1  UNL1       -0.1550
@<TRIPOS>BOND
     1     9     8    1
     2     9     1    1
     3     1     2   ar
     4     2     3   ar
     5     3    23    1
     6    23    24   am
     7    24    25    2
     8    24    27    1
     9    27    28   ar
    10    28    29   ar
    11    29    30   ar
    12    30    34    1
    13    34    35    1
    14    35    36    1
    15    35    37    1
    16    30    31   ar
    17    31    32   ar
    18    32    33    1
    19     3     4   ar
    20     4     5   ar
    21     5     6   ar
    22     6     7    1
    23     9    10    1
    24    10    11    1
    25    11    12    1
    26    12    13    1
    27    12    19    1
    28    19    20    1
    29    19    21    1
    30    19    22    1
    31    12    14    1
    32    14    15    1
    33    14    16    2
    34    16     9    1
    35     6     1   ar
    36    32    27   ar
    37    23    26    1
    38    15    17    1
    39    15    18    1
@<TRIPOS>MOLECULE
*****
 37 39 0 0 0
SMALL
GASTEIGER

@<TRIPOS>ATOM
      1 C          62.3829   89.6536   11.6515 C.ar    1  UNL1        0.0528
      2 C          62.5214   88.1605   11.6145 C.ar    1  UNL1        0.0167
      3 C          61.4655   87.3255   10.9528 C.ar    1  UNL1        0.0505
      4 C          60.2711   87.9837   10.3281 C.ar    1  UNL1        0.0170
      5 C          60.1326   89.4768   10.3650 C.ar    1  UNL1        0.0307
      6 C          61.1885   90.3117   11.0267 C.ar    1  UNL1        0.1402
      7 F          61.0500   91.8049   11.0637 F       1  UNL1       -0.2044
      8 C          62.9042   89.7520   13.5055 C.3     1  UNL1        0.0607
      9 C          63.4388   90.4887   12.3132 C.3     1  UNL1        0.2223
     10 C          63.6067   90.9354   10.8912 C.3     1  UNL1        0.1959
     11 O          64.6448   91.9612   10.5449 O.3     1  UNL1       -0.3357
     12 C          65.5150   92.5404   11.6207 C.3     1  UNL1        0.2740
     13 C          66.5709   93.3754   12.2824 C.3     1  UNL1        0.0512
     14 C          65.3471   92.0937   13.0427 C.2     1  UNL1        0.3217
     15 N          66.2174   92.6729   14.1185 N.pl3   1  UNL1       -0.2480
     16 N          64.3090   91.0679   13.3890 N.2     1  UNL1       -0.0692
     17 H          66.8987   93.3462   13.8912 H       1  UNL1        0.2882
     18 H          66.1071   92.3797   15.0518 H       1  UNL1        0.2882
     19 C          66.0496   93.2771   10.4284 C.3     1  UNL1        0.4305
     20 F          66.5842   94.0138    9.2361 F       1  UNL1       -0.1670
     21 F          66.8798   92.0825   10.0625 F       1  UNL1       -0.1670
     22 F          65.2195   94.4716   10.7943 F       1  UNL1       -0.1670
     23 N          61.6040   85.8323   10.9159 N.am    1  UNL1       -0.2791
     24 C          62.4430   85.1313   11.9428 C.2     1  UNL1        0.2681
     25 O          63.1434   85.9234   13.0068 O.2     1  UNL1       -0.2681
     26 H          61.1442   85.3125   10.2176 H       1  UNL1        0.1552
     27 C          62.5814   83.6382   11.9059 C.ar    1  UNL1        0.1455
     28 N          62.0492   82.8074   13.0358 N.ar    1  UNL1       -0.2352
     29 C          62.1877   81.3142   12.9988 C.ar    1  UNL1        0.1360
     30 C          62.8585   80.6519   11.8320 C.ar    1  UNL1        0.1642
     31 C          63.3907   81.4827   10.7022 C.ar    1  UNL1        0.0518
     32 C          63.2522   82.9758   10.7391 C.ar    1  UNL1        0.0828
     33 CL         63.7844   83.8066    9.6093 Cl      1  UNL1       -0.0804
     34 O          62.9970   79.1588   11.7951 O.3     1  UNL1       -0.4220
     35 C          62.8499   78.4238   10.4958 C.3     1  UNL1        0.5087
     36 F          62.3795   79.1517    9.2714 F       1  UNL1       -0.1550
     37 F          63.1732   76.9610   10.4208 F       1  UNL1       -0.1550
@<TRIPOS>BOND
     1     9     8    1
     2     9     1    1
     3     1     2   ar
     4     2     3   ar
     5     3    23    1
     6    23    24   am
     7    24    25    2
     8    24    27    1
     9    27    28   ar
    10    28    29   ar
    11    29    30   ar
    12    30    34    1
    13    34    35    1
    14    35    36    1
    15    35    37    1
    16    30    31   ar
    17    31    32   ar
    18    32    33    1
    19     3     4   ar
    20     4     5   ar
    21     5     6   ar
    22     6     7    1
    23     9    10    1
    24    10    11    1
    25    11    12    1
    26    12    13    1
    27    12    19    1
    28    19    20    1
    29    19    21    1
    30    19    22    1
    31    12    14    1
    32    14    15    1
    33    14    16    2
    34    16     9    1
    35     6     1   ar
    36    32    27   ar
    37    23    26    1
    38    15    17    1
    39    15    18    1
@<TRIPOS>MOLECULE
*****
 37 39 0 0 0
SMALL
GASTEIGER

@<TRIPOS>ATOM
      1 C          63.9645   86.2157   15.2080 C.ar    1  UNL1        0.0528
      2 C          64.5476   87.4510   14.5882 C.ar    1  UNL1        0.0167
      3 C          64.2517   88.7976   15.1789 C.ar    1  UNL1        0.0505
      4 C          63.3729   88.9090   16.3894 C.ar    1  UNL1        0.0170
      5 C          62.7898   87.6737   17.0091 C.ar    1  UNL1        0.0307
      6 C          63.0857   86.3271   16.4184 C.ar    1  UNL1        0.1402
      7 F          62.5026   85.0917   17.0381 F       1  UNL1       -0.2044
      8 C          65.6218   85.4935   14.5368 C.3     1  UNL1        0.0607
      9 C          64.2603   84.8690   14.6172 C.3     1  UNL1        0.2223
     10 C          62.7962   84.7122   14.9028 C.3     1  UNL1        0.1959
     11 O          62.1006   83.4256   14.5698 O.3     1  UNL1       -0.3357
     12 C          62.8693   82.2958   13.9511 C.3     1  UNL1        0.2740
     13 C          63.1652   80.9492   13.3604 C.3     1  UNL1        0.0512
     14 C          64.3335   82.4526   13.6655 C.2     1  UNL1        0.3217
     15 N          65.1022   81.3228   13.0469 N.pl3   1  UNL1       -0.2480
     16 N          65.0290   83.7392   13.9986 N.2     1  UNL1       -0.0692
     17 H          64.6457   80.4783   12.8283 H       1  UNL1        0.2882
     18 H          66.0632   81.4257   12.8595 H       1  UNL1        0.2882
     19 C          61.5078   81.6713   14.0316 C.3     1  UNL1        0.4305
     20 F          60.1464   81.0468   14.1120 F       1  UNL1       -0.1670
     21 F          61.8806   80.7174   12.9356 F       1  UNL1       -0.1670
     22 F          61.1351   82.6252   15.1275 F       1  UNL1       -0.1670
     23 N          64.8348   90.0330   14.5592 N.am    1  UNL1       -0.2791
     24 C          64.2599   90.5755   13.2843 C.2     1  UNL1        0.2681
     25 O          63.1019   89.8825   12.6292 O.2     1  UNL1       -0.2681
     26 H          65.5947   90.4878   14.9892 H       1  UNL1        0.1552
     27 C          64.8429   91.8108   12.6646 C.ar    1  UNL1        0.1455
     28 N          65.6833   92.7391   13.4903 N.ar    1  UNL1       -0.2352
     29 C          66.2663   93.9744   12.8705 C.ar    1  UNL1        0.1360
     30 C          66.0088   94.2814   11.4251 C.ar    1  UNL1        0.1642
     31 C          65.1683   93.3531   10.5993 C.ar    1  UNL1        0.0518
     32 C          64.5854   92.1178   11.2191 C.ar    1  UNL1        0.0828
     33 CL         63.7449   91.1895   10.3933 Cl      1  UNL1       -0.0804
     34 O          66.5918   95.5167   10.8053 O.3     1  UNL1       -0.4220
     35 C          67.4925   95.4033    9.6112 C.3     1  UNL1        0.5087
     36 F          67.6444   96.5641    8.6734 F       1  UNL1       -0.1550
     37 F          68.2413   94.1291    9.3550 F       1  UNL1       -0.1550
@<TRIPOS>BOND
     1     9     8    1
     2     9     1    1
     3     1     2   ar
     4     2     3   ar
     5     3    23    1
     6    23    24   am
     7    24    25    2
     8    24    27    1
     9    27    28   ar
    10    28    29   ar
    11    29    30   ar
    12    30    34    1
    13    34    35    1
    14    35    36    1
    15    35    37    1
    16    30    31   ar
    17    31    32   ar
    18    32    33    1
    19     3     4   ar
    20     4     5   ar
    21     5     6   ar
    22     6     7    1
    23     9    10    1
    24    10    11    1
    25    11    12    1
    26    12    13    1
    27    12    19    1
    28    19    20    1
    29    19    21    1
    30    19    22    1
    31    12    14    1
    32    14    15    1
    33    14    16    2
    34    16     9    1
    35     6     1   ar
    36    32    27   ar
    37    23    26    1
    38    15    17    1
    39    15    18    1
@<TRIPOS>MOLECULE
*****
 37 39 0 0 0
SMALL
GASTEIGER

@<TRIPOS>ATOM
      1 C          63.8616   86.9504   14.9754 C.ar    1  UNL1        0.0528
      2 C          64.0989   88.1367   14.0888 C.ar    1  UNL1        0.0167
      3 C          63.8519   89.5222   14.6078 C.ar    1  UNL1        0.0505
      4 C          63.3677   89.7213   16.0135 C.ar    1  UNL1        0.0170
      5 C          63.1304   88.5349   16.9001 C.ar    1  UNL1        0.0307
      6 C          63.3774   87.1494   16.3811 C.ar    1  UNL1        0.1402
      7 F          63.1401   85.9630   17.2677 F       1  UNL1       -0.2044
      8 C          64.6011   85.4071   15.8645 C.3     1  UNL1        0.0607
      9 C          64.1086   85.5648   14.4564 C.3     1  UNL1        0.2223
     10 C          63.5303   86.2036   13.2286 C.3     1  UNL1        0.1959
     11 O          63.3700   85.4022   11.9709 O.3     1  UNL1       -0.3357
     12 C          63.7880   83.9619   11.9409 C.3     1  UNL1        0.2740
     13 C          64.0349   82.5764   11.4219 C.3     1  UNL1        0.0512
     14 C          64.3663   83.3231   13.1686 C.2     1  UNL1        0.3217
     15 N          64.7843   81.8828   13.1387 N.pl3   1  UNL1       -0.2480
     16 N          64.5266   84.1245   14.4264 N.2     1  UNL1       -0.0692
     17 H          64.6791   81.3567   12.3132 H       1  UNL1        0.2882
     18 H          65.1638   81.4635   13.9445 H       1  UNL1        0.2882
     19 C          63.2954   84.1195   10.5328 C.3     1  UNL1        0.4305
     20 F          62.8029   84.2771    9.1248 F       1  UNL1       -0.1670
     21 F          64.6535   83.7471   10.0161 F       1  UNL1       -0.1670
     22 F          61.9374   84.4918   11.0496 F       1  UNL1       -0.1670
     23 N          64.0892   90.7087   13.7212 N.am    1  UNL1       -0.2791
     24 C          65.4452   91.3479   13.6706 C.2     1  UNL1        0.2681
     25 O          66.5640   90.8006   14.5066 O.2     1  UNL1       -0.2681
     26 H          63.3549   91.0678   13.1725 H       1  UNL1        0.1552
     27 C          65.6825   92.5343   12.7840 C.ar    1  UNL1        0.1455
     28 N          65.2516   92.4954   11.3477 N.ar    1  UNL1       -0.2352
     29 C          65.4889   93.6819   10.4612 C.ar    1  UNL1        0.1360
     30 C          66.1571   94.9072   11.0108 C.ar    1  UNL1        0.1642
     31 C          66.5881   94.9461   12.4471 C.ar    1  UNL1        0.0518
     32 C          66.3508   93.7596   13.3336 C.ar    1  UNL1        0.0828
     33 CL         66.7817   93.7985   14.7699 Cl      1  UNL1       -0.0804
     34 O          66.3944   96.0936   10.1242 O.3     1  UNL1       -0.4220
     35 C          65.2942   96.6011    9.2400 C.3     1  UNL1        0.5087
     36 F          63.9304   96.8552    9.8105 F       1  UNL1       -0.1550
     37 F          65.5578   96.8545    7.7852 F       1  UNL1       -0.1550
@<TRIPOS>BOND
     1     9     8    1
     2     9     1    1
     3     1     2   ar
     4     2     3   ar
     5     3    23    1
     6    23    24   am
     7    24    25    2
     8    24    27    1
     9    27    28   ar
    10    28    29   ar
    11    29    30   ar
    12    30    34    1
    13    34    35    1
    14    35    36    1
    15    35    37    1
    16    30    31   ar
    17    31    32   ar
    18    32    33    1
    19     3     4   ar
    20     4     5   ar
    21     5     6   ar
    22     6     7    1
    23     9    10    1
    24    10    11    1
    25    11    12    1
    26    12    13    1
    27    12    19    1
    28    19    20    1
    29    19    21    1
    30    19    22    1
    31    12    14    1
    32    14    15    1
    33    14    16    2
    34    16     9    1
    35     6     1   ar
    36    32    27   ar
    37    23    26    1
    38    15    17    1
    39    15    18    1
@<TRIPOS>MOLECULE
*****
 37 39 0 0 0
SMALL
GASTEIGER

@<TRIPOS>ATOM
      1 C          63.8974   88.7685   15.0149 C.ar    1  UNL1        0.0528
      2 C          63.8870   87.3497   14.5283 C.ar    1  UNL1        0.0167
      3 C          63.4573   86.2448   15.4472 C.ar    1  UNL1        0.0505
      4 C          63.0380   86.5586   16.8528 C.ar    1  UNL1        0.0170
      5 C          63.0483   87.9774   17.3395 C.ar    1  UNL1        0.0307
      6 C          63.4780   89.0823   16.4205 C.ar    1  UNL1        0.1402
      7 F          63.4884   90.5012   16.9072 F       1  UNL1       -0.2044
      8 C          65.2270   90.1425   15.2655 C.3     1  UNL1        0.0607
      9 C          64.3271   89.8735   14.0960 C.3     1  UNL1        0.2223
     10 C          63.2779   89.2207   13.2457 C.3     1  UNL1        0.1959
     11 O          62.9710   89.7664   11.8825 O.3     1  UNL1       -0.3357
     12 C          63.7133   90.9648   11.3698 C.3     1  UNL1        0.2740
     13 C          64.1430   92.0697   10.4509 C.3     1  UNL1        0.0512
     14 C          64.7624   91.6175   12.2202 C.2     1  UNL1        0.3217
     15 N          65.5047   92.8159   11.7074 N.pl3   1  UNL1       -0.2480
     16 N          65.0694   91.0719   13.5833 N.2     1  UNL1       -0.0692
     17 H          65.3033   93.1741   10.8128 H       1  UNL1        0.2882
     18 H          66.1934   93.2443   12.2656 H       1  UNL1        0.2882
     19 C          62.8133   90.6958   10.2003 C.3     1  UNL1        0.4305
     20 F          61.9134   90.4268    9.0307 F       1  UNL1       -0.1670
     21 F          62.5870   89.2982   10.6959 F       1  UNL1       -0.1670
     22 F          63.0397   92.0933    9.7047 F       1  UNL1       -0.1670
     23 N          63.4469   84.8259   14.9606 N.am    1  UNL1       -0.2791
     24 C          62.7209   84.4718   13.6967 C.2     1  UNL1        0.2681
     25 O          62.0053   85.5366   12.9193 O.2     1  UNL1       -0.2681
     26 H          63.9166   84.1270   15.4708 H       1  UNL1        0.1552
     27 C          62.7105   83.0530   13.2100 C.ar    1  UNL1        0.1455
     28 N          62.1022   81.9743   14.0564 N.ar    1  UNL1       -0.2352
     29 C          62.0918   80.5554   13.5697 C.ar    1  UNL1        0.1360
     30 C          62.6896   80.2154   12.2367 C.ar    1  UNL1        0.1642
     31 C          63.2979   81.2941   11.3903 C.ar    1  UNL1        0.0518
     32 C          63.3083   82.7129   11.8770 C.ar    1  UNL1        0.0828
     33 CL         63.9166   83.7916   11.0306 Cl      1  UNL1       -0.0804
     34 O          62.6792   78.7966   11.7500 O.3     1  UNL1       -0.4220
     35 C          62.9060   78.5003   10.2972 C.3     1  UNL1        0.5087
     36 F          62.4032   79.4501    9.2507 F       1  UNL1       -0.1550
     37 F          63.6356   77.2543    9.8908 F       1  UNL1       -0.1550
@<TRIPOS>BOND
     1     9     8    1
     2     9     1    1
     3     1     2   ar
     4     2     3   ar
     5     3    23    1
     6    23    24   am
     7    24    25    2
     8    24    27    1
     9    27    28   ar
    10    28    29   ar
    11    29    30   ar
    12    30    34    1
    13    34    35    1
    14    35    36    1
    15    35    37    1
    16    30    31   ar
    17    31    32   ar
    18    32    33    1
    19     3     4   ar
    20     4     5   ar
    21     5     6   ar
    22     6     7    1
    23     9    10    1
    24    10    11    1
    25    11    12    1
    26    12    13    1
    27    12    19    1
    28    19    20    1
    29    19    21    1
    30    19    22    1
    31    12    14    1
    32    14    15    1
    33    14    16    2
    34    16     9    1
    35     6     1   ar
    36    32    27   ar
    37    23    26    1
    38    15    17    1
    39    15    18    1
