@<TRIPOS>MOLECULE
*****
 33 37 0 0 0
SMALL
GASTEIGER

@<TRIPOS>ATOM
      1 O          63.5899   87.5624   13.0192 O.2     1  UNL1       -0.2699
      2 C          62.7773   86.9558   11.9140 C.2     1  UNL1        0.2506
      3 N          61.7556   87.7839   11.1927 N.am    1  UNL1       -0.2723
      4 C          60.9430   87.1772   10.0874 C.3     1  UNL1        0.1257
      5 C          59.9213   88.0055    9.3661 C.3     1  UNL1        0.1637
      6 O          59.7123   89.4404    9.7500 O.3     1  UNL1       -0.3502
      7 C          60.5249   90.0470   10.8553 C.3     1  UNL1        0.1622
      8 C          61.5466   89.2189   11.5766 C.3     1  UNL1        0.1096
      9 C          62.9863   85.5208   11.5301 C.ar    1  UNL1        0.0730
     10 C          63.0218   85.1293   10.0825 C.ar    1  UNL1        0.0070
     11 C          63.2308   83.6944    9.6985 C.ar    1  UNL1        0.0116
     12 C          63.4044   82.6511   10.7622 C.ar    1  UNL1        0.0592
     13 CL         63.6135   81.2162   10.3782 Cl      1  UNL1       -0.0822
     14 C          63.3690   83.0427   12.2097 C.ar    1  UNL1        0.0324
     15 C          63.1599   84.4775   12.5937 C.ar    1  UNL1        0.1081
     16 N          63.1245   84.8691   14.0412 N.ar    1  UNL1       -0.1476
     17 N          61.9312   84.7909   14.9468 N.ar    1  UNL1       -0.1447
     18 C          62.3453   85.2810   16.3026 C.ar    1  UNL1        0.1446
     19 C          63.7945   85.6621   16.2351 C.ar    1  UNL1        0.1446
     20 N          64.2761   85.4075   14.8374 N.ar    1  UNL1       -0.1447
     21 C          62.3592   89.8256   12.6818 C.3     1  UNL1        0.0496
     22 C          63.5172   90.7217   12.3564 C.ar    1  UNL1       -0.0083
     23 C          64.5120   91.0779   13.4210 C.ar    1  UNL1        0.0175
     24 C          65.6701   91.9741   13.0956 C.ar    1  UNL1        0.1026
     25 C          65.8333   92.5139   11.7056 C.ar    1  UNL1        0.0218
     26 C          64.8384   92.1576   10.6411 C.ar    1  UNL1        0.0127
     27 C          63.6803   91.2615   10.9665 C.ar    1  UNL1        0.0538
     28 CL         62.6855   90.9052    9.9020 Cl      1  UNL1       -0.0826
     29 N          66.6650   92.3303   14.1601 N.ar    1  UNL1       -0.1478
     30 N          66.3624   92.5440   15.6136 N.ar    1  UNL1       -0.1447
     31 C          67.6475   92.8812   16.3099 C.ar    1  UNL1        0.1446
     32 C          68.7444   92.8759   15.2867 C.ar    1  UNL1        0.1446
     33 N          68.1371   92.5354   13.9581 N.ar    1  UNL1       -0.1447
@<TRIPOS>BOND
     1     1     2    2
     2     2     9    1
     3     9    10   ar
     4    10    11   ar
     5    11    12   ar
     6    12    13    1
     7    12    14   ar
     8    14    15   ar
     9    15    16    1
    10    16    17   ar
    11    17    18   ar
    12    18    19   ar
    13    19    20   ar
    14     2     3   am
    15     3     4    1
    16     4     5    1
    17     5     6    1
    18     6     7    1
    19     7     8    1
    20     8    21    1
    21    21    22    1
    22    22    23   ar
    23    23    24   ar
    24    24    29    1
    25    29    30   ar
    26    30    31   ar
    27    31    32   ar
    28    32    33   ar
    29    24    25   ar
    30    25    26   ar
    31    26    27   ar
    32    27    28    1
    33    15     9   ar
    34    20    16   ar
    35     8     3    1
    36    27    22   ar
    37    33    29   ar
@<TRIPOS>MOLECULE
*****
 33 37 0 0 0
SMALL
GASTEIGER

@<TRIPOS>ATOM
      1 O          63.5474   87.4827   13.7107 O.2     1  UNL1       -0.2699
      2 C          63.0161   87.1201   12.3557 C.2     1  UNL1        0.2506
      3 N          62.3868   88.1717   11.4908 N.am    1  UNL1       -0.2723
      4 C          61.8554   87.8091   10.1357 C.3     1  UNL1        0.1257
      5 C          61.2261   88.8609    9.2709 C.3     1  UNL1        0.1637
      6 O          61.1282   90.2751    9.7611 O.3     1  UNL1       -0.3502
      7 C          61.6596   90.6377   11.1161 C.3     1  UNL1        0.1622
      8 C          62.2888   89.5861   11.9810 C.3     1  UNL1        0.1096
      9 C          63.1140   85.7058   11.8655 C.ar    1  UNL1        0.0730
     10 C          63.1443   85.4229   10.3927 C.ar    1  UNL1        0.0070
     11 C          63.2422   84.0087    9.9025 C.ar    1  UNL1        0.0116
     12 C          63.3098   82.8773   10.8851 C.ar    1  UNL1        0.0592
     13 CL         63.4078   81.4630   10.3949 Cl      1  UNL1       -0.0822
     14 C          63.2795   83.1603   12.3579 C.ar    1  UNL1        0.0324
     15 C          63.1816   84.5745   12.8481 C.ar    1  UNL1        0.1081
     16 N          63.1513   84.8574   14.3208 N.ar    1  UNL1       -0.1476
     17 N          64.3359   85.1873   15.1798 N.ar    1  UNL1       -0.1447
     18 C          63.8478   85.3939   16.5831 C.ar    1  UNL1        0.1446
     19 C          62.3615   85.1916   16.5914 C.ar    1  UNL1        0.1446
     20 N          61.9311   84.8601   15.1932 N.ar    1  UNL1       -0.1447
     21 C          62.8202   89.9487   13.3360 C.3     1  UNL1        0.0496
     22 C          64.0194   90.8416   13.4571 C.ar    1  UNL1       -0.0083
     23 C          64.6525   91.4181   12.2255 C.ar    1  UNL1        0.0175
     24 C          65.8517   92.3110   12.3465 C.ar    1  UNL1        0.1026
     25 C          66.4177   92.6275   13.6991 C.ar    1  UNL1        0.0218
     26 C          65.7845   92.0509   14.9307 C.ar    1  UNL1        0.0127
     27 C          64.5854   91.1580   14.8097 C.ar    1  UNL1        0.0538
     28 CL         63.9522   90.5815   16.0412 Cl      1  UNL1       -0.0826
     29 N          66.4849   92.8875   11.1150 N.ar    1  UNL1       -0.1478
     30 N          65.9757   94.0582   10.3274 N.ar    1  UNL1       -0.1447
     31 C          66.9145   94.2888    9.1804 C.ar    1  UNL1        0.1446
     32 C          68.0039   93.2605    9.2591 C.ar    1  UNL1        0.1446
     33 N          67.7383   92.3945   10.4547 N.ar    1  UNL1       -0.1447
@<TRIPOS>BOND
     1     1     2    2
     2     2     9    1
     3     9    10   ar
     4    10    11   ar
     5    11    12   ar
     6    12    13    1
     7    12    14   ar
     8    14    15   ar
     9    15    16    1
    10    16    17   ar
    11    17    18   ar
    12    18    19   ar
    13    19    20   ar
    14     2     3   am
    15     3     4    1
    16     4     5    1
    17     5     6    1
    18     6     7    1
    19     7     8    1
    20     8    21    1
    21    21    22    1
    22    22    23   ar
    23    23    24   ar
    24    24    29    1
    25    29    30   ar
    26    30    31   ar
    27    31    32   ar
    28    32    33   ar
    29    24    25   ar
    30    25    26   ar
    31    26    27   ar
    32    27    28    1
    33    15     9   ar
    34    20    16   ar
    35     8     3    1
    36    27    22   ar
    37    33    29   ar
@<TRIPOS>MOLECULE
*****
 33 37 0 0 0
SMALL
GASTEIGER

@<TRIPOS>ATOM
      1 O          63.4472   88.1807   11.8513 O.2     1  UNL1       -0.2699
      2 C          63.4592   87.5117   13.1938 C.2     1  UNL1        0.2506
      3 N          63.3646   88.3359   14.4434 N.am    1  UNL1       -0.2723
      4 C          63.3767   87.6669   15.7859 C.3     1  UNL1        0.1257
      5 C          63.2821   88.4912   17.0356 C.3     1  UNL1        0.1637
      6 O          63.1754   89.9845   16.9427 O.3     1  UNL1       -0.3502
      7 C          63.1633   90.6535   15.6003 C.3     1  UNL1        0.1622
      8 C          63.2579   89.8293   14.3506 C.3     1  UNL1        0.1096
      9 C          63.5659   86.0183   13.2866 C.ar    1  UNL1        0.0730
     10 C          64.3579   85.3904   14.3950 C.ar    1  UNL1        0.0070
     11 C          64.4646   83.8971   14.4879 C.ar    1  UNL1        0.0116
     12 C          63.7794   83.0317   13.4723 C.ar    1  UNL1        0.0592
     13 CL         63.8860   81.5384   13.5651 Cl      1  UNL1       -0.0822
     14 C          62.9874   83.6596   12.3638 C.ar    1  UNL1        0.0324
     15 C          62.8807   85.1529   12.2710 C.ar    1  UNL1        0.1081
     16 N          62.0888   85.7808   11.1626 N.ar    1  UNL1       -0.1476
     17 N          62.3809   85.6662    9.6958 N.ar    1  UNL1       -0.1447
     18 C          61.3383   86.4481    8.9530 C.ar    1  UNL1        0.1446
     19 C          60.4018   87.0459    9.9608 C.ar    1  UNL1        0.1446
     20 N          60.8656   86.6334   11.3263 N.ar    1  UNL1       -0.1447
     21 C          63.2459   90.4983   13.0082 C.3     1  UNL1        0.0496
     22 C          64.3942   91.3701   12.5943 C.ar    1  UNL1       -0.0083
     23 C          65.4633   91.7228   13.5855 C.ar    1  UNL1        0.0175
     24 C          66.6117   92.5947   13.1717 C.ar    1  UNL1        0.1026
     25 C          66.6908   93.1138   11.7666 C.ar    1  UNL1        0.0218
     26 C          65.6216   92.7611   10.7754 C.ar    1  UNL1        0.0127
     27 C          64.4733   91.8893   11.1892 C.ar    1  UNL1        0.0538
     28 CL         63.4042   91.5366   10.1980 Cl      1  UNL1       -0.0826
     29 N          67.6808   92.9473   14.1629 N.ar    1  UNL1       -0.1478
     30 N          69.0987   92.4585   14.1416 N.ar    1  UNL1       -0.1447
     31 C          69.8140   93.0598   15.3150 C.ar    1  UNL1        0.1446
     32 C          68.8380   93.9202   16.0616 C.ar    1  UNL1        0.1446
     33 N          67.5197   93.8507   15.3495 N.ar    1  UNL1       -0.1447
@<TRIPOS>BOND
     1     1     2    2
     2     2     9    1
     3     9    10   ar
     4    10    11   ar
     5    11    12   ar
     6    12    13    1
     7    12    14   ar
     8    14    15   ar
     9    15    16    1
    10    16    17   ar
    11    17    18   ar
    12    18    19   ar
    13    19    20   ar
    14     2     3   am
    15     3     4    1
    16     4     5    1
    17     5     6    1
    18     6     7    1
    19     7     8    1
    20     8    21    1
    21    21    22    1
    22    22    23   ar
    23    23    24   ar
    24    24    29    1
    25    29    30   ar
    26    30    31   ar
    27    31    32   ar
    28    32    33   ar
    29    24    25   ar
    30    25    26   ar
    31    26    27   ar
    32    27    28    1
    33    15     9   ar
    34    20    16   ar
    35     8     3    1
    36    27    22   ar
    37    33    29   ar
@<TRIPOS>MOLECULE
*****
 33 37 0 0 0
SMALL
GASTEIGER

@<TRIPOS>ATOM
      1 O          60.6668   86.8527   11.6629 O.2     1  UNL1       -0.2699
      2 C          61.0526   86.6964   10.2218 C.2     1  UNL1        0.2506
      3 N          62.0642   85.6628    9.8241 N.am    1  UNL1       -0.2723
      4 C          62.4501   85.5065    8.3831 C.3     1  UNL1        0.1257
      5 C          63.4617   84.4728    7.9854 C.3     1  UNL1        0.1637
      6 O          64.0875   83.5954    9.0287 O.3     1  UNL1       -0.3502
      7 C          63.7016   83.7517   10.4698 C.3     1  UNL1        0.1622
      8 C          62.6900   84.7853   10.8675 C.3     1  UNL1        0.1096
      9 C          60.4268   87.5738    9.1784 C.ar    1  UNL1        0.0730
     10 C          59.5548   86.9717    8.1169 C.ar    1  UNL1        0.0070
     11 C          58.9290   87.8490    7.0736 C.ar    1  UNL1        0.0116
     12 C          59.1753   89.3285    7.0917 C.ar    1  UNL1        0.0592
     13 CL         58.5495   90.2059    6.0483 Cl      1  UNL1       -0.0822
     14 C          60.0474   89.9307    8.1533 C.ar    1  UNL1        0.0324
     15 C          60.6732   89.0533    9.1966 C.ar    1  UNL1        0.1081
     16 N          61.5453   89.6555   10.2582 N.ar    1  UNL1       -0.1476
     17 N          61.1718   89.8563   11.6970 N.ar    1  UNL1       -0.1447
     18 C          62.3396   90.4875   12.3953 C.ar    1  UNL1        0.1446
     19 C          63.4349   90.6768   11.3881 C.ar    1  UNL1        0.1446
     20 N          62.9440   90.1626   10.0673 N.ar    1  UNL1       -0.1447
     21 C          62.3042   84.9416   12.3086 C.3     1  UNL1        0.0496
     22 C          63.3015   85.4642   13.2996 C.ar    1  UNL1       -0.0083
     23 C          63.3248   86.9246   13.6411 C.ar    1  UNL1        0.0175
     24 C          64.3222   87.4473   14.6322 C.ar    1  UNL1        0.1026
     25 C          65.2962   86.5095   15.2817 C.ar    1  UNL1        0.0218
     26 C          65.2728   85.0490   14.9402 C.ar    1  UNL1        0.0127
     27 C          64.2755   84.5264   13.9491 C.ar    1  UNL1        0.0538
     28 CL         64.2522   83.0660   13.6076 Cl      1  UNL1       -0.0826
     29 N          64.3455   88.9076   14.9738 N.ar    1  UNL1       -0.1478
     30 N          63.4635   89.5932   15.9748 N.ar    1  UNL1       -0.1447
     31 C          63.8278   91.0481   15.9940 C.ar    1  UNL1        0.1446
     32 C          64.9350   91.2618   15.0047 C.ar    1  UNL1        0.1446
     33 N          65.2549   89.9389   14.3742 N.ar    1  UNL1       -0.1447
@<TRIPOS>BOND
     1     1     2    2
     2     2     9    1
     3     9    10   ar
     4    10    11   ar
     5    11    12   ar
     6    12    13    1
     7    12    14   ar
     8    14    15   ar
     9    15    16    1
    10    16    17   ar
    11    17    18   ar
    12    18    19   ar
    13    19    20   ar
    14     2     3   am
    15     3     4    1
    16     4     5    1
    17     5     6    1
    18     6     7    1
    19     7     8    1
    20     8    21    1
    21    21    22    1
    22    22    23   ar
    23    23    24   ar
    24    24    29    1
    25    29    30   ar
    26    30    31   ar
    27    31    32   ar
    28    32    33   ar
    29    24    25   ar
    30    25    26   ar
    31    26    27   ar
    32    27    28    1
    33    15     9   ar
    34    20    16   ar
    35     8     3    1
    36    27    22   ar
    37    33    29   ar
@<TRIPOS>MOLECULE
*****
 33 37 0 0 0
SMALL
GASTEIGER

@<TRIPOS>ATOM
      1 O          62.9534   87.8334   12.5724 O.2     1  UNL1       -0.2699
      2 C          62.7315   88.9830   11.6347 C.2     1  UNL1        0.2506
      3 N          61.6830   88.8877   10.5663 N.am    1  UNL1       -0.2723
      4 C          61.4611   90.0373    9.6287 C.3     1  UNL1        0.1257
      5 C          60.4125   89.9420    8.5602 C.3     1  UNL1        0.1637
      6 O          59.5860   88.6972    8.4294 O.3     1  UNL1       -0.3502
      7 C          59.8079   87.5476    9.3671 C.3     1  UNL1        0.1622
      8 C          60.8564   87.6428   10.4355 C.3     1  UNL1        0.1096
      9 C          63.5581   90.2278   11.7655 C.ar    1  UNL1        0.0730
     10 C          63.8530   91.0629   10.5549 C.ar    1  UNL1        0.0070
     11 C          64.6796   92.3077   10.6856 C.ar    1  UNL1        0.0116
     12 C          65.2113   92.7175   12.0270 C.ar    1  UNL1        0.0592
     13 CL         66.0379   93.9624   12.1578 Cl      1  UNL1       -0.0822
     14 C          64.9164   91.8824   13.2377 C.ar    1  UNL1        0.0324
     15 C          64.0898   90.6376   13.1069 C.ar    1  UNL1        0.1081
     16 N          63.7949   89.8025   14.3176 N.ar    1  UNL1       -0.1476
     17 N          62.7526   90.0929   15.3564 N.ar    1  UNL1       -0.1447
     18 C          62.8040   89.0003   16.3829 C.ar    1  UNL1        0.1446
     19 C          63.8782   88.0346   15.9784 C.ar    1  UNL1        0.1446
     20 N          64.4905   88.5304   14.7020 N.ar    1  UNL1       -0.1447
     21 C          61.0783   86.4932   11.3732 C.3     1  UNL1        0.0496
     22 C          61.9693   85.3565   10.9685 C.ar    1  UNL1       -0.0083
     23 C          62.1125   84.1608   11.8627 C.ar    1  UNL1        0.0175
     24 C          63.0036   83.0239   11.4580 C.ar    1  UNL1        0.1026
     25 C          63.7515   83.0830   10.1590 C.ar    1  UNL1        0.0218
     26 C          63.6083   84.2788    9.2648 C.ar    1  UNL1        0.0127
     27 C          62.7172   85.4156    9.6696 C.ar    1  UNL1        0.0538
     28 CL         62.5741   86.6113    8.7754 Cl      1  UNL1       -0.0826
     29 N          63.1467   81.8282   12.3521 N.ar    1  UNL1       -0.1478
     30 N          62.4816   80.4978   12.1585 N.ar    1  UNL1       -0.1447
     31 C          62.9039   79.6002   13.2836 C.ar    1  UNL1        0.1446
     32 C          63.8301   80.3759   14.1728 C.ar    1  UNL1        0.1446
     33 N          63.9801   81.7529   13.5970 N.ar    1  UNL1       -0.1447
@<TRIPOS>BOND
     1     1     2    2
     2     2     9    1
     3     9    10   ar
     4    10    11   ar
     5    11    12   ar
     6    12    13    1
     7    12    14   ar
     8    14    15   ar
     9    15    16    1
    10    16    17   ar
    11    17    18   ar
    12    18    19   ar
    13    19    20   ar
    14     2     3   am
    15     3     4    1
    16     4     5    1
    17     5     6    1
    18     6     7    1
    19     7     8    1
    20     8    21    1
    21    21    22    1
    22    22    23   ar
    23    23    24   ar
    24    24    29    1
    25    29    30   ar
    26    30    31   ar
    27    31    32   ar
    28    32    33   ar
    29    24    25   ar
    30    25    26   ar
    31    26    27   ar
    32    27    28    1
    33    15     9   ar
    34    20    16   ar
    35     8     3    1
    36    27    22   ar
    37    33    29   ar
@<TRIPOS>MOLECULE
*****
 33 37 0 0 0
SMALL
GASTEIGER

@<TRIPOS>ATOM
      1 O          61.5507   92.9850   -2.6299 O.2     1  UNL1       -0.2699
      2 C          61.5761   94.2752   -1.8651 C.2     1  UNL1        0.2506
      3 N          60.2904   94.9202   -1.4397 N.am    1  UNL1       -0.2723
      4 C          60.3157   96.2104   -0.6749 C.3     1  UNL1        0.1257
      5 C          59.0300   96.8555   -0.2496 C.3     1  UNL1        0.1637
      6 O          57.7191   96.2104   -0.5889 O.3     1  UNL1       -0.3502
      7 C          57.6937   94.9202   -1.3537 C.3     1  UNL1        0.1622
      8 C          58.9794   94.2751   -1.7791 C.3     1  UNL1        0.1096
      9 C          62.8871   94.9203   -1.5257 C.ar    1  UNL1        0.0730
     10 C          63.5726   95.7992   -2.5295 C.ar    1  UNL1        0.0070
     11 C          64.8836   96.4443   -2.1902 C.ar    1  UNL1        0.0116
     12 C          65.5090   96.2104   -0.8471 C.ar    1  UNL1        0.0592
     13 CL         66.8201   96.8555   -0.5077 Cl      1  UNL1       -0.0822
     14 C          64.8235   95.3315    0.1567 C.ar    1  UNL1        0.0324
     15 C          63.5126   94.6865   -0.1826 C.ar    1  UNL1        0.1081
     16 N          62.8271   93.8076    0.8212 N.ar    1  UNL1       -0.1476
     17 N          63.3833   92.5476    1.4154 N.ar    1  UNL1       -0.1447
     18 C          62.3650   91.9957    2.3685 C.ar    1  UNL1        0.1446
     19 C          61.1794   92.9145    2.3634 C.ar    1  UNL1        0.1446
     20 N          61.4650   94.0343    1.4071 N.ar    1  UNL1       -0.1447
     21 C          58.9541   92.9850   -2.5439 C.3     1  UNL1        0.0496
     22 C          58.1712   92.8845   -3.8194 C.ar    1  UNL1       -0.0083
     23 C          57.1124   91.8326   -3.9686 C.ar    1  UNL1        0.0175
     24 C          56.3295   91.7320   -5.2442 C.ar    1  UNL1        0.1026
     25 C          56.6055   92.6834   -6.3705 C.ar    1  UNL1        0.0218
     26 C          57.6644   93.7353   -6.2213 C.ar    1  UNL1        0.0127
     27 C          58.4473   93.8358   -4.9458 C.ar    1  UNL1        0.0538
     28 CL         59.5061   94.8878   -4.7966 Cl      1  UNL1       -0.0826
     29 N          55.2707   90.6801   -5.3933 N.ar    1  UNL1       -0.1478
     30 N          54.5192   90.3577   -6.6508 N.ar    1  UNL1       -0.1447
     31 C          53.5615   89.2442   -6.3459 C.ar    1  UNL1        0.1446
     32 C          53.7211   88.8784   -4.8999 C.ar    1  UNL1        0.1446
     33 N          54.7774   89.7658   -4.3112 N.ar    1  UNL1       -0.1447
@<TRIPOS>BOND
     1     1     2    2
     2     2     9    1
     3     9    10   ar
     4    10    11   ar
     5    11    12   ar
     6    12    13    1
     7    12    14   ar
     8    14    15   ar
     9    15    16    1
    10    16    17   ar
    11    17    18   ar
    12    18    19   ar
    13    19    20   ar
    14     2     3   am
    15     3     4    1
    16     4     5    1
    17     5     6    1
    18     6     7    1
    19     7     8    1
    20     8    21    1
    21    21    22    1
    22    22    23   ar
    23    23    24   ar
    24    24    29    1
    25    29    30   ar
    26    30    31   ar
    27    31    32   ar
    28    32    33   ar
    29    24    25   ar
    30    25    26   ar
    31    26    27   ar
    32    27    28    1
    33    15     9   ar
    34    20    16   ar
    35     8     3    1
    36    27    22   ar
    37    33    29   ar
@<TRIPOS>MOLECULE
*****
 33 37 0 0 0
SMALL
GASTEIGER

@<TRIPOS>ATOM
      1 O          63.4497   88.6428    9.5995 O.2     1  UNL1       -0.2699
      2 C          62.9085   89.5667   10.6500 C.2     1  UNL1        0.2506
      3 N          61.5488   89.3232   11.2345 N.am    1  UNL1       -0.2723
      4 C          61.0075   90.2471   12.2850 C.3     1  UNL1        0.1257
      5 C          59.6477   90.0035   12.8695 C.3     1  UNL1        0.1637
      6 O          58.8292   88.8361   12.4036 O.3     1  UNL1       -0.3502
      7 C          59.3704   87.9122   11.3531 C.3     1  UNL1        0.1622
      8 C          60.7302   88.1557   10.7686 C.3     1  UNL1        0.1096
      9 C          63.7271   90.7342   11.1159 C.ar    1  UNL1        0.0730
     10 C          63.9836   91.8870   10.1911 C.ar    1  UNL1        0.0070
     11 C          64.8022   93.0544   10.6570 C.ar    1  UNL1        0.0116
     12 C          65.3642   93.0690   12.0476 C.ar    1  UNL1        0.0592
     13 CL         66.1828   94.2365   12.5135 Cl      1  UNL1       -0.0822
     14 C          65.1077   91.9162   12.9724 C.ar    1  UNL1        0.0324
     15 C          64.2891   90.7487   12.5065 C.ar    1  UNL1        0.1081
     16 N          64.0326   89.5959   13.4313 N.ar    1  UNL1       -0.1476
     17 N          63.8231   89.6846   14.9139 N.ar    1  UNL1       -0.1447
     18 C          63.6016   88.2955   15.4348 C.ar    1  UNL1        0.1446
     19 C          63.6742   87.3482   14.2740 C.ar    1  UNL1        0.1446
     20 N          63.9406   88.1519   13.0358 N.ar    1  UNL1       -0.1447
     21 C          61.2714   87.2318    9.7181 C.3     1  UNL1        0.0496
     22 C          62.0474   86.0125   10.1194 C.ar    1  UNL1       -0.0083
     23 C          62.1912   85.6588   11.5700 C.ar    1  UNL1        0.0175
     24 C          62.9673   84.4395   11.9713 C.ar    1  UNL1        0.1026
     25 C          63.5995   83.5739   10.9220 C.ar    1  UNL1        0.0218
     26 C          63.4557   83.9276    9.4714 C.ar    1  UNL1        0.0127
     27 C          62.6797   85.1469    9.0701 C.ar    1  UNL1        0.0538
     28 CL         62.5359   85.5006    7.6196 Cl      1  UNL1       -0.0826
     29 N          63.1111   84.0858   13.4219 N.ar    1  UNL1       -0.1478
     30 N          64.2959   83.4167   14.0529 N.ar    1  UNL1       -0.1447
     31 C          64.0124   83.2564   15.5172 C.ar    1  UNL1        0.1446
     32 C          62.6523   83.8266   15.7911 C.ar    1  UNL1        0.1446
     33 N          62.0952   84.3391   14.4961 N.ar    1  UNL1       -0.1447
@<TRIPOS>BOND
     1     1     2    2
     2     2     9    1
     3     9    10   ar
     4    10    11   ar
     5    11    12   ar
     6    12    13    1
     7    12    14   ar
     8    14    15   ar
     9    15    16    1
    10    16    17   ar
    11    17    18   ar
    12    18    19   ar
    13    19    20   ar
    14     2     3   am
    15     3     4    1
    16     4     5    1
    17     5     6    1
    18     6     7    1
    19     7     8    1
    20     8    21    1
    21    21    22    1
    22    22    23   ar
    23    23    24   ar
    24    24    29    1
    25    29    30   ar
    26    30    31   ar
    27    31    32   ar
    28    32    33   ar
    29    24    25   ar
    30    25    26   ar
    31    26    27   ar
    32    27    28    1
    33    15     9   ar
    34    20    16   ar
    35     8     3    1
    36    27    22   ar
    37    33    29   ar
