@<TRIPOS>MOLECULE
*****
 50 57 0 0 0
SMALL
GASTEIGER

@<TRIPOS>ATOM
      1 C          61.2246   91.4457    4.6725 C.2     1  UNL1       -0.0003
      2 C          60.4517   90.9074    5.8399 C.2     1  UNL1       -0.0003
      3 C          61.2701   92.5555    2.3238 C.2     1  UNL1       -0.0261
      4 C          60.4978   91.9868    3.4772 C.2     1  UNL1       -0.0046
      5 C          64.2998   95.9665   -1.5635 C.3     1  UNL1        0.0024
      6 C          63.4468   95.1274   -0.6589 C.3     1  UNL1        0.0248
      7 C          62.7199   95.6685   -1.8543 C.3     1  UNL1        0.0023
      8 C          61.2675   95.3523   -2.0554 C.3     1  UNL1        0.0004
      9 C          60.5419   94.4950   -1.0612 C.3     1  UNL1        0.0038
     10 C          61.2687   93.9539    0.1342 C.3     1  UNL1        0.0047
     11 C          60.5432   93.0966    1.1284 C.3     1  UNL1        0.0260
     12 C          59.0908   92.7803    0.9273 C.3     1  UNL1        0.0264
     13 C          58.3639   93.3214   -0.2681 C.2     1  UNL1       -0.0417
     14 C          56.9115   93.0052   -0.4692 C.2     1  UNL1        0.0290
     15 C          56.1846   93.5463   -1.6645 C.2     1  UNL1        0.1725
     16 O          54.7322   93.2301   -1.8656 O.2     1  UNL1       -0.2914
     17 C          56.9102   94.4036   -2.6588 C.3     1  UNL1        0.0694
     18 C          58.3626   94.7198   -2.4577 C.3     1  UNL1        0.0118
     19 C          59.0894   94.1787   -1.2623 C.3     1  UNL1        0.0157
     20 C          59.8150   95.0361   -2.2566 C.3     1  UNL1        0.0041
     21 C          62.7212   94.2701    0.3353 C.3     1  UNL1        0.0027
     22 C          63.6936   93.8817    1.4093 C.3     1  UNL1        0.0026
     23 C          65.0201   94.4990    1.0789 C.3     1  UNL1        0.0292
     24 C          64.8676   95.2689   -0.1994 C.3     1  UNL1        0.1104
     25 O          65.9465   96.0441   -0.8958 O.3     1  UNL1       -0.3845
     26 H          66.7719   95.9744   -0.3911 H       1  UNL1        0.2103
     27 C          61.1785   90.3663    7.0353 C.2     1  UNL1       -0.0046
     28 C          60.4420   90.1416    8.3226 C.2     1  UNL1       -0.0261
     29 C          61.1689   89.6005    9.5179 C.3     1  UNL1        0.0260
     30 C          61.5248   90.5116   10.6551 C.3     1  UNL1        0.0264
     31 C          62.2517   89.9705   11.8504 C.2     1  UNL1       -0.0417
     32 C          62.6076   90.8816   12.9876 C.2     1  UNL1        0.0290
     33 C          63.3345   90.3405   14.1829 C.2     1  UNL1        0.1725
     34 O          63.6904   91.2517   15.3202 O.2     1  UNL1       -0.2914
     35 C          63.7055   88.8883   14.2411 C.3     1  UNL1        0.0694
     36 C          63.3496   87.9772   13.1040 C.3     1  UNL1        0.0118
     37 C          62.6227   88.5183   11.9086 C.3     1  UNL1        0.0157
     38 C          62.9936   87.0660   11.9667 C.3     1  UNL1        0.0041
     39 C          62.2668   87.6072   10.7714 C.3     1  UNL1        0.0038
     40 C          62.6377   86.1549   10.8296 C.3     1  UNL1        0.0004
     41 C          62.2818   85.2438    9.6924 C.3     1  UNL1        0.0023
     42 C          61.5549   85.7849    8.4970 C.3     1  UNL1        0.0248
     43 C          61.8585   84.3183    8.4141 C.3     1  UNL1        0.0024
     44 C          61.0750   85.1330    7.2342 C.3     1  UNL1        0.1104
     45 O          61.2346   83.6858    6.8734 O.3     1  UNL1       -0.3845
     46 C          60.4075   86.1823    6.3957 C.3     1  UNL1        0.0292
     47 C          60.4748   87.4827    7.1401 C.3     1  UNL1        0.0026
     48 C          61.1840   87.2372    8.4389 C.3     1  UNL1        0.0027
     49 C          61.5399   88.1483    9.5761 C.3     1  UNL1        0.0047
     50 H          61.7014   83.2242    7.5874 H       1  UNL1        0.2103
@<TRIPOS>BOND
     1     6     5    1
     2     6     7    1
     3     7     8    1
     4     9     8    1
     5     9    10    1
     6    10    11    1
     7    11     3    1
     8     3     4    2
     9     4     1    1
    10     1     2    2
    11     2    27    1
    12    27    28    2
    13    29    28    1
    14    29    30    1
    15    30    31    1
    16    31    32    2
    17    32    33    1
    18    33    34    2
    19    33    35    1
    20    35    36    1
    21    36    37    1
    22    37    38    1
    23    37    39    1
    24    39    40    1
    25    40    41    1
    26    41    42    1
    27    42    43    1
    28    42    44    1
    29    44    45    1
    30    44    46    1
    31    46    47    1
    32    48    47    1
    33    48    49    1
    34    11    12    1
    35    12    13    1
    36    13    14    2
    37    14    15    1
    38    15    16    2
    39    15    17    1
    40    17    18    1
    41    18    19    1
    42    19    20    1
    43    10    21    1
    44    21    22    1
    45    22    23    1
    46    23    24    1
    47    24    25    1
    48    21     6    1
    49    24     6    1
    50    19     9    1
    51    49    29    1
    52    19    13    1
    53    37    31    1
    54    49    39    1
    55    48    42    1
    56    45    50    1
    57    25    26    1
@<TRIPOS>MOLECULE
*****
 50 57 0 0 0
SMALL
GASTEIGER

@<TRIPOS>ATOM
      1 C          60.4610   90.9063    5.8548 C.2     1  UNL1       -0.0003
      2 C          61.2333   91.4625    4.6954 C.2     1  UNL1       -0.0003
      3 C          60.4474   90.1283    8.3336 C.2     1  UNL1       -0.0261
      4 C          61.1880   90.3686    7.0515 C.2     1  UNL1       -0.0046
      5 C          61.8745   84.3078    8.4358 C.3     1  UNL1        0.0024
      6 C          61.5682   85.7740    8.5160 C.3     1  UNL1        0.0248
      7 C          62.2953   85.2362    9.7128 C.3     1  UNL1        0.0023
      8 C          62.6488   86.1498   10.8486 C.3     1  UNL1        0.0004
      9 C          62.2752   87.6013   10.7878 C.3     1  UNL1        0.0038
     10 C          61.5481   88.1391    9.5911 C.3     1  UNL1        0.0047
     11 C          61.1745   89.5906    9.5303 C.3     1  UNL1        0.0260
     12 C          61.5280   90.5042   10.6662 C.3     1  UNL1        0.0264
     13 C          62.2552   89.9664   11.8629 C.2     1  UNL1       -0.0417
     14 C          62.6087   90.8801   12.9988 C.2     1  UNL1        0.0290
     15 C          63.3358   90.3423   14.1954 C.2     1  UNL1        0.1725
     16 O          63.6893   91.2560   15.3314 O.2     1  UNL1       -0.2914
     17 C          63.7094   88.8908   14.2563 C.3     1  UNL1        0.0694
     18 C          63.3559   87.9772   13.1204 C.3     1  UNL1        0.0118
     19 C          62.6288   88.5150   11.9237 C.3     1  UNL1        0.0157
     20 C          63.0024   87.0635   11.9846 C.3     1  UNL1        0.0041
     21 C          61.1946   87.2254    8.4552 C.3     1  UNL1        0.0027
     22 C          60.4858   87.4675    7.1557 C.3     1  UNL1        0.0026
     23 C          60.4213   86.1658    6.4133 C.3     1  UNL1        0.0292
     24 C          61.0903   85.1191    7.2541 C.3     1  UNL1        0.1104
     25 O          61.2528   83.6716    6.8957 O.3     1  UNL1       -0.3845
     26 H          60.8556   83.5072    6.0261 H       1  UNL1        0.2103
     27 C          60.5063   92.0003    3.4987 C.2     1  UNL1       -0.0046
     28 C          61.2779   92.5778    2.3493 C.2     1  UNL1       -0.0261
     29 C          60.5508   93.1155    1.1525 C.3     1  UNL1        0.0260
     30 C          59.1038   92.7813    0.9414 C.3     1  UNL1        0.0264
     31 C          58.3768   93.3190   -0.2553 C.2     1  UNL1       -0.0417
     32 C          56.9298   92.9847   -0.4665 C.2     1  UNL1        0.0290
     33 C          56.2027   93.5225   -1.6632 C.2     1  UNL1        0.1725
     34 O          54.7557   93.1882   -1.8744 O.2     1  UNL1       -0.2914
     35 C          56.9226   94.3945   -2.6488 C.3     1  UNL1        0.0694
     36 C          58.3695   94.7288   -2.4376 C.3     1  UNL1        0.0118
     37 C          59.0967   94.1911   -1.2409 C.3     1  UNL1        0.0157
     38 C          59.8165   95.0631   -2.2264 C.3     1  UNL1        0.0041
     39 C          60.5436   94.5253   -1.0297 C.3     1  UNL1        0.0038
     40 C          61.2634   95.3974   -2.0153 C.3     1  UNL1        0.0004
     41 C          62.7104   95.7317   -1.8042 C.3     1  UNL1        0.0023
     42 C          63.4375   95.1939   -0.6074 C.3     1  UNL1        0.0248
     43 C          64.2846   96.0489   -1.5026 C.3     1  UNL1        0.0024
     44 C          64.8537   95.3516   -0.1389 C.3     1  UNL1        0.1104
     45 O          65.9262   96.1447   -0.8250 O.3     1  UNL1       -0.3845
     46 C          65.0090   94.5771    1.1362 C.3     1  UNL1        0.0292
     47 C          63.6890   93.9406    1.4558 C.3     1  UNL1        0.0026
     48 C          62.7176   94.3218    0.3782 C.3     1  UNL1        0.0027
     49 C          61.2706   93.9876    0.1670 C.3     1  UNL1        0.0047
     50 H          65.5652   96.5480   -1.6299 H       1  UNL1        0.2103
@<TRIPOS>BOND
     1     6     5    1
     2     6     7    1
     3     7     8    1
     4     9     8    1
     5     9    10    1
     6    10    11    1
     7    11     3    1
     8     3     4    2
     9     4     1    1
    10     1     2    2
    11     2    27    1
    12    27    28    2
    13    29    28    1
    14    29    30    1
    15    30    31    1
    16    31    32    2
    17    32    33    1
    18    33    34    2
    19    33    35    1
    20    35    36    1
    21    36    37    1
    22    37    38    1
    23    37    39    1
    24    39    40    1
    25    40    41    1
    26    41    42    1
    27    42    43    1
    28    42    44    1
    29    44    45    1
    30    44    46    1
    31    46    47    1
    32    48    47    1
    33    48    49    1
    34    11    12    1
    35    12    13    1
    36    13    14    2
    37    14    15    1
    38    15    16    2
    39    15    17    1
    40    17    18    1
    41    18    19    1
    42    19    20    1
    43    10    21    1
    44    21    22    1
    45    22    23    1
    46    23    24    1
    47    24    25    1
    48    21     6    1
    49    24     6    1
    50    19     9    1
    51    49    29    1
    52    19    13    1
    53    37    31    1
    54    49    39    1
    55    48    42    1
    56    45    50    1
    57    25    26    1
@<TRIPOS>MOLECULE
*****
 50 57 0 0 0
SMALL
GASTEIGER

@<TRIPOS>ATOM
      1 C          60.0729   89.8871    5.7575 C.2     1  UNL1       -0.0003
      2 C          60.8409   90.9616    5.0464 C.2     1  UNL1       -0.0003
      3 C          60.5703   87.6820    7.0381 C.2     1  UNL1       -0.0261
      4 C          60.6877   89.1731    6.9246 C.2     1  UNL1       -0.0046
      5 C          59.8450   90.0038   12.5162 C.3     1  UNL1        0.0024
      6 C          60.0886   89.3361   11.1953 C.3     1  UNL1        0.0248
      7 C          60.7034   88.6221   12.3625 C.3     1  UNL1        0.0023
      8 C          61.4787   87.3568   12.1439 C.3     1  UNL1        0.0004
      9 C          61.6393   86.8054   10.7582 C.3     1  UNL1        0.0038
     10 C          61.0245   87.5193    9.5911 C.3     1  UNL1        0.0047
     11 C          61.1851   86.9680    8.2053 C.3     1  UNL1        0.0260
     12 C          61.9604   85.7027    7.9868 C.3     1  UNL1        0.0264
     13 C          62.5752   84.9886    9.1540 C.2     1  UNL1       -0.0417
     14 C          63.3505   83.7233    8.9354 C.2     1  UNL1        0.0290
     15 C          63.9653   83.0094   10.1026 C.2     1  UNL1        0.1725
     16 O          64.7406   81.7440    9.8841 O.2     1  UNL1       -0.2914
     17 C          63.8047   83.5607   11.4883 C.3     1  UNL1        0.0694
     18 C          63.0294   84.8261   11.7069 C.3     1  UNL1        0.0118
     19 C          62.4146   85.5400   10.5397 C.3     1  UNL1        0.0157
     20 C          62.2541   86.0914   11.9254 C.3     1  UNL1        0.0041
     21 C          60.2491   88.7847    9.8096 C.3     1  UNL1        0.0027
     22 C          59.5355   89.7011    8.8605 C.3     1  UNL1        0.0026
     23 C          58.9338   90.8189    9.6597 C.3     1  UNL1        0.0292
     24 C          59.2757   90.5932   11.1026 C.3     1  UNL1        0.1104
     25 O          58.8749   91.4708   12.2513 O.3     1  UNL1       -0.3845
     26 H          58.3535   92.2187   11.9202 H       1  UNL1        0.2103
     27 C          60.2261   91.6756    3.8793 C.2     1  UNL1       -0.0046
     28 C          61.1035   92.3259    2.8511 C.2     1  UNL1       -0.0261
     29 C          60.4887   93.0400    1.6839 C.3     1  UNL1        0.0260
     30 C          59.1067   92.6782    1.2267 C.3     1  UNL1        0.0264
     31 C          58.4919   93.3922    0.0596 C.2     1  UNL1       -0.0417
     32 C          57.1099   93.0304   -0.3977 C.2     1  UNL1        0.0290
     33 C          56.4951   93.7445   -1.5648 C.2     1  UNL1        0.1725
     34 O          55.1130   93.3827   -2.0221 O.2     1  UNL1       -0.2914
     35 C          57.2623   94.8203   -2.2747 C.3     1  UNL1        0.0694
     36 C          58.6443   95.1821   -1.8174 C.3     1  UNL1        0.0118
     37 C          59.2592   94.4681   -0.6503 C.3     1  UNL1        0.0157
     38 C          60.0264   95.5439   -1.3601 C.3     1  UNL1        0.0041
     39 C          60.6412   94.8299   -0.1930 C.3     1  UNL1        0.0038
     40 C          61.4084   95.9057   -0.9029 C.3     1  UNL1        0.0004
     41 C          62.7904   96.2675   -0.4456 C.3     1  UNL1        0.0023
     42 C          63.4053   95.5535    0.7215 C.3     1  UNL1        0.0248
     43 C          64.2888   96.6022    0.1136 C.3     1  UNL1        0.0024
     44 C          64.7388   95.6925    1.3941 C.3     1  UNL1        0.1104
     45 O          65.8247   96.6529    1.0088 O.3     1  UNL1       -0.3845
     46 C          64.7957   94.7026    2.5196 C.3     1  UNL1        0.0292
     47 C          63.4974   93.9518    2.5427 C.3     1  UNL1        0.0026
     48 C          62.6380   94.4776    1.4314 C.3     1  UNL1        0.0027
     49 C          61.2559   94.1158    0.9741 C.3     1  UNL1        0.0047
     50 H          65.5348   97.1805    0.2482 H       1  UNL1        0.2103
@<TRIPOS>BOND
     1     6     5    1
     2     6     7    1
     3     7     8    1
     4     9     8    1
     5     9    10    1
     6    10    11    1
     7    11     3    1
     8     3     4    2
     9     4     1    1
    10     1     2    2
    11     2    27    1
    12    27    28    2
    13    29    28    1
    14    29    30    1
    15    30    31    1
    16    31    32    2
    17    32    33    1
    18    33    34    2
    19    33    35    1
    20    35    36    1
    21    36    37    1
    22    37    38    1
    23    37    39    1
    24    39    40    1
    25    40    41    1
    26    41    42    1
    27    42    43    1
    28    42    44    1
    29    44    45    1
    30    44    46    1
    31    46    47    1
    32    48    47    1
    33    48    49    1
    34    11    12    1
    35    12    13    1
    36    13    14    2
    37    14    15    1
    38    15    16    2
    39    15    17    1
    40    17    18    1
    41    18    19    1
    42    19    20    1
    43    10    21    1
    44    21    22    1
    45    22    23    1
    46    23    24    1
    47    24    25    1
    48    21     6    1
    49    24     6    1
    50    19     9    1
    51    49    29    1
    52    19    13    1
    53    37    31    1
    54    49    39    1
    55    48    42    1
    56    45    50    1
    57    25    26    1
@<TRIPOS>MOLECULE
*****
 50 57 0 0 0
SMALL
GASTEIGER

@<TRIPOS>ATOM
      1 C          60.8680   90.9683    4.9902 C.2     1  UNL1       -0.0003
      2 C          60.1308   89.8512    5.6674 C.2     1  UNL1       -0.0003
      3 C          61.1215   92.3823    2.8254 C.2     1  UNL1       -0.0261
      4 C          60.2500   91.6734    3.8193 C.2     1  UNL1       -0.0046
      5 C          64.2904   96.6530    0.0603 C.3     1  UNL1        0.0024
      6 C          63.4108   95.6049    0.6751 C.3     1  UNL1        0.0248
      7 C          62.7928   96.3100   -0.4958 C.3     1  UNL1        0.0023
      8 C          61.4117   95.9409   -0.9499 C.3     1  UNL1        0.0004
      9 C          60.6486   94.8666   -0.2331 C.3     1  UNL1        0.0038
     10 C          61.2666   94.1616    0.9377 C.3     1  UNL1        0.0047
     11 C          60.5035   93.0874    1.6545 C.3     1  UNL1        0.0260
     12 C          59.1224   92.7182    1.2004 C.3     1  UNL1        0.0264
     13 C          58.5043   93.4233    0.0295 C.2     1  UNL1       -0.0417
     14 C          57.1232   93.0542   -0.4246 C.2     1  UNL1        0.0290
     15 C          56.5052   93.7592   -1.5954 C.2     1  UNL1        0.1725
     16 O          55.1240   93.3901   -2.0495 O.2     1  UNL1       -0.2914
     17 C          57.2683   94.8334   -2.3122 C.3     1  UNL1        0.0694
     18 C          58.6494   95.2026   -1.8581 C.3     1  UNL1        0.0118
     19 C          59.2674   94.4975   -0.6872 C.3     1  UNL1        0.0157
     20 C          60.0305   95.5717   -1.4040 C.3     1  UNL1        0.0041
     21 C          62.6477   94.5307    1.3919 C.3     1  UNL1        0.0027
     22 C          63.5096   94.0143    2.5055 C.3     1  UNL1        0.0026
     23 C          64.8054   94.7693    2.4772 C.3     1  UNL1        0.0292
     24 C          64.7443   95.7524    1.3458 C.3     1  UNL1        0.1104
     25 O          65.8268   96.7141    0.9541 O.3     1  UNL1       -0.3845
     26 H          66.5856   96.6065    1.5487 H       1  UNL1        0.2103
     27 C          60.7488   89.1462    6.8383 C.2     1  UNL1       -0.0046
     28 C          60.5357   87.6731    7.0246 C.2     1  UNL1       -0.0261
     29 C          61.1538   86.9680    8.1955 C.3     1  UNL1        0.0260
     30 C          61.9164   85.6934    7.9863 C.3     1  UNL1        0.0264
     31 C          62.5344   84.9885    9.1572 C.2     1  UNL1       -0.0417
     32 C          63.2970   83.7138    8.9480 C.2     1  UNL1        0.0290
     33 C          63.9150   83.0088   10.1189 C.2     1  UNL1        0.1725
     34 O          64.6776   81.7341    9.9098 O.2     1  UNL1       -0.2914
     35 C          63.7704   83.5784   11.4990 C.3     1  UNL1        0.0694
     36 C          63.0078   84.8530   11.7082 C.3     1  UNL1        0.0118
     37 C          62.3898   85.5581   10.5373 C.3     1  UNL1        0.0157
     38 C          62.2452   86.1277   11.9174 C.3     1  UNL1        0.0041
     39 C          61.6272   86.8327   10.7465 C.3     1  UNL1        0.0038
     40 C          61.4826   87.4023   12.1265 C.3     1  UNL1        0.0004
     41 C          60.7201   88.6769   12.3357 C.3     1  UNL1        0.0023
     42 C          60.1020   89.3820   11.1648 C.3     1  UNL1        0.0248
     43 C          59.8749   90.0680   12.4793 C.3     1  UNL1        0.0024
     44 C          59.2993   90.6450   11.0632 C.3     1  UNL1        0.1104
     45 O          58.9155   91.5400   12.2041 O.3     1  UNL1       -0.3845
     46 C          58.9477   90.8559    9.6203 C.3     1  UNL1        0.0292
     47 C          59.5332   89.7234    8.8302 C.3     1  UNL1        0.0026
     48 C          60.2466   88.8124    9.7847 C.3     1  UNL1        0.0027
     49 C          61.0092   87.5377    9.5756 C.3     1  UNL1        0.0047
     50 H          59.2677   91.1774   13.0320 H       1  UNL1        0.2103
@<TRIPOS>BOND
     1     6     5    1
     2     6     7    1
     3     7     8    1
     4     9     8    1
     5     9    10    1
     6    10    11    1
     7    11     3    1
     8     3     4    2
     9     4     1    1
    10     1     2    2
    11     2    27    1
    12    27    28    2
    13    29    28    1
    14    29    30    1
    15    30    31    1
    16    31    32    2
    17    32    33    1
    18    33    34    2
    19    33    35    1
    20    35    36    1
    21    36    37    1
    22    37    38    1
    23    37    39    1
    24    39    40    1
    25    40    41    1
    26    41    42    1
    27    42    43    1
    28    42    44    1
    29    44    45    1
    30    44    46    1
    31    46    47    1
    32    48    47    1
    33    48    49    1
    34    11    12    1
    35    12    13    1
    36    13    14    2
    37    14    15    1
    38    15    16    2
    39    15    17    1
    40    17    18    1
    41    18    19    1
    42    19    20    1
    43    10    21    1
    44    21    22    1
    45    22    23    1
    46    23    24    1
    47    24    25    1
    48    21     6    1
    49    24     6    1
    50    19     9    1
    51    49    29    1
    52    19    13    1
    53    37    31    1
    54    49    39    1
    55    48    42    1
    56    45    50    1
    57    25    26    1
