@<TRIPOS>MOLECULE
*****
 33 36 0 0 0
SMALL
GASTEIGER

@<TRIPOS>ATOM
      1 N          64.1342   88.9901   13.7880 N.am    1  UNL1       -0.2987
      2 C          63.0772   89.0204   12.7242 C.2     1  UNL1        0.2476
      3 O          62.3020   90.2797   12.4728 O.2     1  UNL1       -0.2701
      4 H          64.6430   88.1636   13.9530 H       1  UNL1        0.1500
      5 C          62.7952   87.7913   11.9118 C.ar    1  UNL1        0.0755
      6 C          62.2215   87.9196   10.5319 C.ar    1  UNL1        0.1035
      7 N          61.9395   86.6906    9.7196 N.ar    1  UNL1       -0.2406
      8 C          62.2313   85.3331   10.2873 C.ar    1  UNL1        0.1180
      9 C          62.8051   85.2048   11.6673 C.ar    1  UNL1        0.1036
     10 C          63.0870   86.4339   12.4795 C.ar    1  UNL1        0.0460
     11 C          63.6494   85.9979   13.8001 C.ar    1  UNL1        0.1222
     12 N          63.7151   84.4994   13.8038 N.ar    1  UNL1       -0.1635
     13 N          63.1932   84.0092   12.4857 N.ar    1  UNL1       -0.2281
     14 C          63.0795   82.5752   12.0606 C.ar    1  UNL1        0.0830
     15 C          63.4277   82.1793   10.6564 C.ar    1  UNL1        0.0215
     16 C          63.3140   80.7453   10.2313 C.ar    1  UNL1        0.0312
     17 C          62.8520   79.7071   11.2105 C.ar    1  UNL1        0.1402
     18 F          62.7383   78.2731   10.7854 F       1  UNL1       -0.2042
     19 C          62.5038   80.1030   12.6148 C.ar    1  UNL1        0.0312
     20 C          62.6175   81.5370   13.0398 C.ar    1  UNL1        0.0215
     21 C          64.4162   90.2191   14.6003 C.3     1  UNL1        0.0945
     22 C          65.4923   91.1717   14.1705 C.ar    1  UNL1       -0.0001
     23 C          66.7972   91.2119   14.9091 C.ar    1  UNL1        0.0181
     24 C          67.8733   92.1644   14.4793 C.ar    1  UNL1        0.1001
     25 N          67.6444   93.0768   13.3109 N.ar    1  UNL1       -0.2257
     26 C          66.3395   93.0366   12.5723 C.ar    1  UNL1        0.1860
     27 C          65.2635   92.0841   13.0021 C.ar    1  UNL1        0.0352
     28 S          66.1107   93.9490   11.4039 S.O2    1  UNL1        0.0268
     29 C          65.8819   94.8613   10.2354 C.3     1  UNL1        0.1834
     30 O          66.0725   92.7635   10.4857 O.2     1  UNL1       -0.1671
     31 O          66.1489   95.1345   12.3220 O.2     1  UNL1       -0.1671
     32 C          63.1623   89.3594   16.7071 C.3     1  UNL1        0.0021
     33 C          63.6222   90.4957   15.8425 C.3     1  UNL1        0.0241
@<TRIPOS>BOND
     1    32    33    1
     2    21    33    1
     3    21     1    1
     4     1     2   am
     5     2     3    2
     6     2     5    1
     7     5     6   ar
     8     6     7   ar
     9     7     8   ar
    10     8     9   ar
    11     9    10   ar
    12    10    11   ar
    13    11    12   ar
    14    12    13   ar
    15    13    14    1
    16    14    15   ar
    17    15    16   ar
    18    16    17   ar
    19    17    18    1
    20    17    19   ar
    21    19    20   ar
    22    21    22    1
    23    22    23   ar
    24    23    24   ar
    25    24    25   ar
    26    25    26   ar
    27    26    28    1
    28    28    29    1
    29    28    30    2
    30    28    31    2
    31    26    27   ar
    32    10     5   ar
    33    20    14   ar
    34    27    22   ar
    35    13     9   ar
    36     1     4    1
@<TRIPOS>MOLECULE
*****
 33 36 0 0 0
SMALL
GASTEIGER

@<TRIPOS>ATOM
      1 N          63.9582   88.7919   13.6521 N.am    1  UNL1       -0.2987
      2 C          62.8946   88.7773   12.5945 C.2     1  UNL1        0.2476
      3 O          62.0459   89.9931   12.3675 O.2     1  UNL1       -0.2701
      4 H          64.5153   87.9940   13.8011 H       1  UNL1        0.1500
      5 C          62.6799   87.5469   11.7637 C.ar    1  UNL1        0.0755
      6 C          62.2028   87.6722   10.3472 C.ar    1  UNL1        0.1035
      7 N          61.9881   86.4419    9.5165 N.ar    1  UNL1       -0.2406
      8 C          62.2504   85.0862   10.1025 C.ar    1  UNL1        0.1180
      9 C          62.7274   84.9609   11.5190 C.ar    1  UNL1        0.1036
     10 C          62.9422   86.1912   12.3497 C.ar    1  UNL1        0.0460
     11 C          63.4145   85.7583   13.7060 C.ar    1  UNL1        0.1222
     12 N          63.4917   84.2603   13.7135 N.ar    1  UNL1       -0.1635
     13 N          63.0670   83.7675   12.3619 N.ar    1  UNL1       -0.2281
     14 C          62.9947   82.3331   11.9292 C.ar    1  UNL1        0.0830
     15 C          62.5690   81.2760   12.9044 C.ar    1  UNL1        0.0215
     16 C          62.4966   79.8416   12.4717 C.ar    1  UNL1        0.0312
     17 C          62.8500   79.4643   11.0636 C.ar    1  UNL1        0.1402
     18 F          62.7777   78.0299   10.6308 F       1  UNL1       -0.2042
     19 C          63.2758   80.5214   10.0883 C.ar    1  UNL1        0.0312
     20 C          63.3481   81.9558   10.5210 C.ar    1  UNL1        0.0215
     21 C          64.1730   90.0223   14.4828 C.3     1  UNL1        0.0945
     22 C          65.1004   91.0990   14.0026 C.ar    1  UNL1       -0.0001
     23 C          64.8909   91.7232   12.6548 C.ar    1  UNL1        0.0181
     24 C          65.8182   92.7999   12.1745 C.ar    1  UNL1        0.1001
     25 N          66.9551   93.2524   13.0421 N.ar    1  UNL1       -0.2257
     26 C          67.1646   92.6283   14.3899 C.ar    1  UNL1        0.1860
     27 C          66.2373   91.5516   14.8701 C.ar    1  UNL1        0.0352
     28 S          68.3015   93.0809   15.2574 S.O2    1  UNL1        0.0268
     29 C          69.4384   93.5335   16.1249 C.3     1  UNL1        0.1834
     30 O          69.2784   92.6323   14.2113 O.2     1  UNL1       -0.1671
     31 O          67.3247   93.5296   16.3036 O.2     1  UNL1       -0.1671
     32 C          63.1182   88.9635   16.6080 C.3     1  UNL1        0.0021
     33 C          63.4604   90.1759   15.7938 C.3     1  UNL1        0.0241
@<TRIPOS>BOND
     1    32    33    1
     2    21    33    1
     3    21     1    1
     4     1     2   am
     5     2     3    2
     6     2     5    1
     7     5     6   ar
     8     6     7   ar
     9     7     8   ar
    10     8     9   ar
    11     9    10   ar
    12    10    11   ar
    13    11    12   ar
    14    12    13   ar
    15    13    14    1
    16    14    15   ar
    17    15    16   ar
    18    16    17   ar
    19    17    18    1
    20    17    19   ar
    21    19    20   ar
    22    21    22    1
    23    22    23   ar
    24    23    24   ar
    25    24    25   ar
    26    25    26   ar
    27    26    28    1
    28    28    29    1
    29    28    30    2
    30    28    31    2
    31    26    27   ar
    32    10     5   ar
    33    20    14   ar
    34    27    22   ar
    35    13     9   ar
    36     1     4    1
@<TRIPOS>MOLECULE
*****
 33 36 0 0 0
SMALL
GASTEIGER

@<TRIPOS>ATOM
      1 N          63.5969   89.1170   12.0932 N.am    1  UNL1       -0.2987
      2 C          63.5244   88.5365   13.4745 C.2     1  UNL1        0.2476
      3 O          63.1888   89.4171   14.6414 O.2     1  UNL1       -0.2701
      4 H          63.8172   88.5390   11.3273 H       1  UNL1        0.1500
      5 C          63.7876   87.0753   13.6887 C.ar    1  UNL1        0.0755
      6 C          64.6160   86.6256   14.8555 C.ar    1  UNL1        0.1035
      7 N          64.8791   85.1645   15.0696 N.ar    1  UNL1       -0.2406
      8 C          64.3138   84.1531   14.1171 C.ar    1  UNL1        0.1180
      9 C          63.4853   84.6028   12.9503 C.ar    1  UNL1        0.1036
     10 C          63.2222   86.0639   12.7361 C.ar    1  UNL1        0.0460
     11 C          62.3755   86.2070   11.5061 C.ar    1  UNL1        0.1222
     12 N          62.1154   84.8344   10.9602 N.ar    1  UNL1       -0.1635
     13 N          62.8013   83.8429   11.8527 N.ar    1  UNL1       -0.2281
     14 C          62.8029   82.3531   11.6783 C.ar    1  UNL1        0.0830
     15 C          63.1934   81.7526   10.3604 C.ar    1  UNL1        0.0215
     16 C          63.1949   80.2628   10.1860 C.ar    1  UNL1        0.0312
     17 C          62.8060   79.3734   11.3296 C.ar    1  UNL1        0.1402
     18 F          62.8076   77.8836   11.1552 F       1  UNL1       -0.2042
     19 C          62.4155   79.9739   12.6475 C.ar    1  UNL1        0.0312
     20 C          62.4139   81.4637   12.8219 C.ar    1  UNL1        0.0215
     21 C          63.3338   90.5780   11.8790 C.3     1  UNL1        0.0945
     22 C          64.4578   91.5658   11.9838 C.ar    1  UNL1       -0.0001
     23 C          64.8640   92.3699   10.7844 C.ar    1  UNL1        0.0181
     24 C          65.9880   93.3576   10.8892 C.ar    1  UNL1        0.1001
     25 N          66.7057   93.5413   12.1934 N.ar    1  UNL1       -0.2257
     26 C          66.2995   92.7373   13.3928 C.ar    1  UNL1        0.1860
     27 C          65.1756   91.7496   13.2880 C.ar    1  UNL1        0.0352
     28 S          67.0174   92.9211   14.6971 S.O2    1  UNL1        0.0268
     29 C          67.7352   93.1049   16.0013 C.3     1  UNL1        0.1834
     30 O          68.3341   92.8544   13.9818 O.2     1  UNL1       -0.1671
     31 O          65.7007   92.9878   15.4125 O.2     1  UNL1       -0.1671
     32 C          60.9778   90.1302   10.8797 C.3     1  UNL1        0.0021
     33 C          61.9467   91.0514   11.5599 C.3     1  UNL1        0.0241
@<TRIPOS>BOND
     1    32    33    1
     2    21    33    1
     3    21     1    1
     4     1     2   am
     5     2     3    2
     6     2     5    1
     7     5     6   ar
     8     6     7   ar
     9     7     8   ar
    10     8     9   ar
    11     9    10   ar
    12    10    11   ar
    13    11    12   ar
    14    12    13   ar
    15    13    14    1
    16    14    15   ar
    17    15    16   ar
    18    16    17   ar
    19    17    18    1
    20    17    19   ar
    21    19    20   ar
    22    21    22    1
    23    22    23   ar
    24    23    24   ar
    25    24    25   ar
    26    25    26   ar
    27    26    28    1
    28    28    29    1
    29    28    30    2
    30    28    31    2
    31    26    27   ar
    32    10     5   ar
    33    20    14   ar
    34    27    22   ar
    35    13     9   ar
    36     1     4    1
@<TRIPOS>MOLECULE
*****
 33 36 0 0 0
SMALL
GASTEIGER

@<TRIPOS>ATOM
      1 N          63.7650   89.1492   12.2818 N.am    1  UNL1       -0.2987
      2 C          63.6053   88.5073   13.6281 C.2     1  UNL1        0.2476
      3 O          63.1753   89.3311   14.8055 O.2     1  UNL1       -0.2701
      4 H          64.0473   88.6084   11.5090 H       1  UNL1        0.1500
      5 C          63.8756   87.0414   13.7969 C.ar    1  UNL1        0.0755
      6 C          64.7426   86.5636   14.9238 C.ar    1  UNL1        0.1035
      7 N          65.0129   85.0979   15.0926 N.ar    1  UNL1       -0.2406
      8 C          64.4162   84.1100   14.1344 C.ar    1  UNL1        0.1180
      9 C          63.5492   84.5878   13.0075 C.ar    1  UNL1        0.1036
     10 C          63.2790   86.0536   12.8388 C.ar    1  UNL1        0.0460
     11 C          62.3917   86.2265   11.6417 C.ar    1  UNL1        0.1222
     12 N          62.1137   84.8676   11.0706 N.ar    1  UNL1       -0.1635
     13 N          62.8291   83.8549   11.9148 N.ar    1  UNL1       -0.2281
     14 C          62.8250   82.3699   11.7033 C.ar    1  UNL1        0.0830
     15 C          63.1834   81.8023   10.3619 C.ar    1  UNL1        0.0215
     16 C          63.1793   80.3173   10.1505 C.ar    1  UNL1        0.0312
     17 C          62.8169   79.3998   11.2804 C.ar    1  UNL1        0.1402
     18 F          62.8129   77.9148   11.0690 F       1  UNL1       -0.2042
     19 C          62.4586   79.9674   12.6218 C.ar    1  UNL1        0.0312
     20 C          62.4626   81.4524   12.8333 C.ar    1  UNL1        0.0215
     21 C          63.4947   90.6149   12.1130 C.3     1  UNL1        0.0945
     22 C          64.5942   91.6108   12.3352 C.ar    1  UNL1       -0.0001
     23 C          65.1889   91.7789   13.7020 C.ar    1  UNL1        0.0181
     24 C          66.2883   92.7747   13.9243 C.ar    1  UNL1        0.1001
     25 N          66.7931   93.6025   12.7798 N.ar    1  UNL1       -0.2257
     26 C          66.1984   93.4345   11.4131 C.ar    1  UNL1        0.1860
     27 C          65.0989   92.4386   11.1908 C.ar    1  UNL1        0.0352
     28 S          66.7032   94.2624   10.2685 S.O2    1  UNL1        0.0268
     29 C          67.2079   95.0902    9.1241 C.3     1  UNL1        0.1834
     30 O          67.8262   93.2901   10.0606 O.2     1  UNL1       -0.1671
     31 O          65.5801   95.2347   10.4765 O.2     1  UNL1       -0.1671
     32 C          61.0658   90.0873   11.3566 C.3     1  UNL1        0.0021
     33 C          62.1250   91.0848   11.7219 C.3     1  UNL1        0.0241
@<TRIPOS>BOND
     1    32    33    1
     2    21    33    1
     3    21     1    1
     4     1     2   am
     5     2     3    2
     6     2     5    1
     7     5     6   ar
     8     6     7   ar
     9     7     8   ar
    10     8     9   ar
    11     9    10   ar
    12    10    11   ar
    13    11    12   ar
    14    12    13   ar
    15    13    14    1
    16    14    15   ar
    17    15    16   ar
    18    16    17   ar
    19    17    18    1
    20    17    19   ar
    21    19    20   ar
    22    21    22    1
    23    22    23   ar
    24    23    24   ar
    25    24    25   ar
    26    25    26   ar
    27    26    28    1
    28    28    29    1
    29    28    30    2
    30    28    31    2
    31    26    27   ar
    32    10     5   ar
    33    20    14   ar
    34    27    22   ar
    35    13     9   ar
    36     1     4    1
@<TRIPOS>MOLECULE
*****
 33 36 0 0 0
SMALL
GASTEIGER

@<TRIPOS>ATOM
      1 N          65.0430   90.0142   14.8367 N.am    1  UNL1       -0.2987
      2 C          63.8666   89.7188   15.7191 C.2     1  UNL1        0.2476
      3 O          63.0386   90.8433   16.2667 O.2     1  UNL1       -0.2701
      4 H          65.5864   89.2761   14.4773 H       1  UNL1        0.1500
      5 C          63.5181   88.2987   16.0540 C.ar    1  UNL1        0.0755
      6 C          63.1223   87.9337   17.4540 C.ar    1  UNL1        0.1035
      7 N          62.7738   86.5137   17.7888 N.ar    1  UNL1       -0.2406
      8 C          62.8212   85.4587   16.7235 C.ar    1  UNL1        0.1180
      9 C          63.2170   85.8237   15.3235 C.ar    1  UNL1        0.1036
     10 C          63.5654   87.2437   14.9887 C.ar    1  UNL1        0.0460
     11 C          63.9165   87.3037   13.5316 C.ar    1  UNL1        0.1222
     12 N          63.7850   85.9207   12.9658 N.ar    1  UNL1       -0.1635
     13 N          63.3527   85.0060   14.0733 N.ar    1  UNL1       -0.2281
     14 C          63.1003   83.5324   13.9519 C.ar    1  UNL1        0.0830
     15 C          61.8363   82.9402   14.5009 C.ar    1  UNL1        0.0215
     16 C          61.5840   81.4666   14.3795 C.ar    1  UNL1        0.0312
     17 C          62.5957   80.5851   13.7091 C.ar    1  UNL1        0.1402
     18 F          62.3433   79.1115   13.5876 F       1  UNL1       -0.2042
     19 C          63.8597   81.1774   13.1601 C.ar    1  UNL1        0.0312
     20 C          64.1120   82.6510   13.2815 C.ar    1  UNL1        0.0215
     21 C          65.3915   91.4342   14.5019 C.3     1  UNL1        0.0945
     22 C          65.1838   91.9488   13.1083 C.ar    1  UNL1       -0.0001
     23 C          64.2508   91.2342   12.1762 C.ar    1  UNL1        0.0181
     24 C          64.0430   91.7488   10.7826 C.ar    1  UNL1        0.1001
     25 N          64.7683   92.9780   10.3212 N.ar    1  UNL1       -0.2257
     26 C          65.7012   93.6927   11.2533 C.ar    1  UNL1        0.1860
     27 C          65.9090   93.1781   12.6468 C.ar    1  UNL1        0.0352
     28 S          66.4265   94.9220   10.7918 S.O2    1  UNL1        0.0268
     29 C          67.1517   96.1512   10.3303 C.3     1  UNL1        0.1834
     30 O          66.8065   94.2208    9.5214 O.2     1  UNL1       -0.1671
     31 O          66.0464   95.6232   12.0621 O.2     1  UNL1       -0.1671
     32 C          67.4188   92.3352   15.8540 C.3     1  UNL1        0.0021
     33 C          65.9478   92.3396   15.5606 C.3     1  UNL1        0.0241
@<TRIPOS>BOND
     1    32    33    1
     2    21    33    1
     3    21     1    1
     4     1     2   am
     5     2     3    2
     6     2     5    1
     7     5     6   ar
     8     6     7   ar
     9     7     8   ar
    10     8     9   ar
    11     9    10   ar
    12    10    11   ar
    13    11    12   ar
    14    12    13   ar
    15    13    14    1
    16    14    15   ar
    17    15    16   ar
    18    16    17   ar
    19    17    18    1
    20    17    19   ar
    21    19    20   ar
    22    21    22    1
    23    22    23   ar
    24    23    24   ar
    25    24    25   ar
    26    25    26   ar
    27    26    28    1
    28    28    29    1
    29    28    30    2
    30    28    31    2
    31    26    27   ar
    32    10     5   ar
    33    20    14   ar
    34    27    22   ar
    35    13     9   ar
    36     1     4    1
@<TRIPOS>MOLECULE
*****
 33 36 0 0 0
SMALL
GASTEIGER

@<TRIPOS>ATOM
      1 N          62.7361   87.5592   10.2347 N.am    1  UNL1       -0.2987
      2 C          62.2630   88.6581   11.1395 C.2     1  UNL1        0.2476
      3 O          60.9457   88.5333   11.8458 O.2     1  UNL1       -0.2701
      4 H          63.6007   87.6412    9.7712 H       1  UNL1        0.1500
      5 C          63.1075   89.8819   11.3380 C.ar    1  UNL1        0.0755
      6 C          63.0839   90.9827   10.3193 C.ar    1  UNL1        0.1035
      7 N          63.9283   92.2064   10.5178 N.ar    1  UNL1       -0.2406
      8 C          64.7963   92.3294   11.7350 C.ar    1  UNL1        0.1180
      9 C          64.8199   91.2286   12.7536 C.ar    1  UNL1        0.1036
     10 C          63.9755   90.0049   12.5551 C.ar    1  UNL1        0.0460
     11 C          64.2041   89.0897   13.7215 C.ar    1  UNL1        0.1222
     12 N          65.1898   89.7479   14.6408 N.ar    1  UNL1       -0.1635
     13 N          65.5703   91.0698   14.0426 N.ar    1  UNL1       -0.2281
     14 C          66.5325   92.0592   14.6303 C.ar    1  UNL1        0.0830
     15 C          66.4407   93.5086   14.2549 C.ar    1  UNL1        0.0215
     16 C          67.4028   94.4980   14.8425 C.ar    1  UNL1        0.0312
     17 C          68.4569   94.0380   15.8056 C.ar    1  UNL1        0.1402
     18 F          69.4190   95.0274   16.3933 F       1  UNL1       -0.2042
     19 C          68.5487   92.5887   16.1810 C.ar    1  UNL1        0.0312
     20 C          67.5865   91.5993   15.5933 C.ar    1  UNL1        0.0215
     21 C          61.8917   86.3354   10.0363 C.3     1  UNL1        0.0945
     22 C          62.4561   84.9782   10.3355 C.ar    1  UNL1       -0.0001
     23 C          63.3467   84.2996    9.3374 C.ar    1  UNL1        0.0181
     24 C          63.9110   82.9424    9.6366 C.ar    1  UNL1        0.1001
     25 N          63.5847   82.2639   10.9340 N.ar    1  UNL1       -0.2257
     26 C          62.6941   82.9425   11.9321 C.ar    1  UNL1        0.1860
     27 C          62.1298   84.2997   11.6329 C.ar    1  UNL1        0.0352
     28 S          62.3679   82.2639   13.2295 S.O2    1  UNL1        0.0268
     29 C          62.0416   81.5854   14.5268 C.3     1  UNL1        0.1834
     30 O          62.3755   83.5923   13.9261 O.2     1  UNL1       -0.1671
     31 O          62.3602   80.9356   12.5328 O.2     1  UNL1       -0.1671
     32 C          60.1841   86.2980    8.0785 C.3     1  UNL1        0.0021
     33 C          60.4830   86.4688    9.5385 C.3     1  UNL1        0.0241
@<TRIPOS>BOND
     1    32    33    1
     2    21    33    1
     3    21     1    1
     4     1     2   am
     5     2     3    2
     6     2     5    1
     7     5     6   ar
     8     6     7   ar
     9     7     8   ar
    10     8     9   ar
    11     9    10   ar
    12    10    11   ar
    13    11    12   ar
    14    12    13   ar
    15    13    14    1
    16    14    15   ar
    17    15    16   ar
    18    16    17   ar
    19    17    18    1
    20    17    19   ar
    21    19    20   ar
    22    21    22    1
    23    22    23   ar
    24    23    24   ar
    25    24    25   ar
    26    25    26   ar
    27    26    28    1
    28    28    29    1
    29    28    30    2
    30    28    31    2
    31    26    27   ar
    32    10     5   ar
    33    20    14   ar
    34    27    22   ar
    35    13     9   ar
    36     1     4    1
@<TRIPOS>MOLECULE
*****
 33 36 0 0 0
SMALL
GASTEIGER

@<TRIPOS>ATOM
      1 N          62.8939   87.1028   11.3025 N.am    1  UNL1       -0.2987
      2 C          62.2550   88.4489   11.4751 C.2     1  UNL1        0.2476
      3 O          60.7607   88.5692   11.5239 O.2     1  UNL1       -0.2701
      4 H          63.8747   87.0238   11.2705 H       1  UNL1        0.1500
      5 C          63.1106   89.6748   11.5989 C.ar    1  UNL1        0.0755
      6 C          63.0768   90.7243   10.5278 C.ar    1  UNL1        0.1035
      7 N          63.9323   91.9501   10.6517 N.ar    1  UNL1       -0.2406
      8 C          64.8217   92.1264   11.8466 C.ar    1  UNL1        0.1180
      9 C          64.8555   91.0769   12.9178 C.ar    1  UNL1        0.1036
     10 C          64.0000   89.8511   12.7939 C.ar    1  UNL1        0.0460
     11 C          64.2425   88.9927   14.0000 C.ar    1  UNL1        0.1222
     12 N          65.2479   89.6881   14.8692 N.ar    1  UNL1       -0.1635
     13 N          65.6268   90.9762   14.2003 N.ar    1  UNL1       -0.2281
     14 C          66.6052   91.9862   14.7224 C.ar    1  UNL1        0.0830
     15 C          67.7381   91.5479   15.6023 C.ar    1  UNL1        0.0215
     16 C          68.7165   92.5579   16.1244 C.ar    1  UNL1        0.0312
     17 C          68.5620   94.0064   15.7665 C.ar    1  UNL1        0.1402
     18 F          69.5403   95.0164   16.2886 F       1  UNL1       -0.2042
     19 C          67.4290   94.4447   14.8866 C.ar    1  UNL1        0.0312
     20 C          66.4507   93.4347   14.3645 C.ar    1  UNL1        0.0215
     21 C          62.0384   85.8769   11.1787 C.3     1  UNL1        0.0945
     22 C          62.2888   84.6947   12.0673 C.ar    1  UNL1       -0.0001
     23 C          62.4180   84.8846   13.5496 C.ar    1  UNL1        0.0181
     24 C          62.6684   83.7024   14.4382 C.ar    1  UNL1        0.1001
     25 N          62.7896   82.3303   13.8446 N.ar    1  UNL1       -0.2257
     26 C          62.6604   82.1403   12.3623 C.ar    1  UNL1        0.1860
     27 C          62.4100   83.3225   11.4736 C.ar    1  UNL1        0.0352
     28 S          62.7816   80.7681   11.7686 S.O2    1  UNL1        0.0268
     29 C          62.9028   79.3960   11.1749 C.3     1  UNL1        0.1834
     30 O          63.3077   81.3648   10.4969 O.2     1  UNL1       -0.1671
     31 O          62.2555   80.1714   13.0402 O.2     1  UNL1       -0.1671
     32 C          61.2224   86.1331    8.7254 C.3     1  UNL1        0.0021
     33 C          60.9324   85.8333   10.1663 C.3     1  UNL1        0.0241
@<TRIPOS>BOND
     1    32    33    1
     2    21    33    1
     3    21     1    1
     4     1     2   am
     5     2     3    2
     6     2     5    1
     7     5     6   ar
     8     6     7   ar
     9     7     8   ar
    10     8     9   ar
    11     9    10   ar
    12    10    11   ar
    13    11    12   ar
    14    12    13   ar
    15    13    14    1
    16    14    15   ar
    17    15    16   ar
    18    16    17   ar
    19    17    18    1
    20    17    19   ar
    21    19    20   ar
    22    21    22    1
    23    22    23   ar
    24    23    24   ar
    25    24    25   ar
    26    25    26   ar
    27    26    28    1
    28    28    29    1
    29    28    30    2
    30    28    31    2
    31    26    27   ar
    32    10     5   ar
    33    20    14   ar
    34    27    22   ar
    35    13     9   ar
    36     1     4    1
@<TRIPOS>MOLECULE
*****
 33 36 0 0 0
SMALL
GASTEIGER

@<TRIPOS>ATOM
      1 N          65.1638   89.5167   14.4483 N.am    1  UNL1       -0.2987
      2 C          63.8385   88.8764   14.7378 C.2     1  UNL1        0.2476
      3 O          62.6001   89.7189   14.8178 O.2     1  UNL1       -0.2701
      4 H          65.9766   88.9637   14.3958 H       1  UNL1        0.1500
      5 C          63.7518   87.3936   14.9474 C.ar    1  UNL1        0.0755
      6 C          63.9293   86.8187   16.3214 C.ar    1  UNL1        0.1035
      7 N          63.8425   85.3360   16.5309 N.ar    1  UNL1       -0.2406
      8 C          63.5782   84.4282   15.3664 C.ar    1  UNL1        0.1180
      9 C          63.4007   85.0031   13.9924 C.ar    1  UNL1        0.1036
     10 C          63.4875   86.4858   13.7829 C.ar    1  UNL1        0.0460
     11 C          63.2717   86.7613   12.3242 C.ar    1  UNL1        0.1222
     12 N          63.0515   85.4488   11.6323 N.ar    1  UNL1       -0.1635
     13 N          63.1313   84.3622   12.6633 N.ar    1  UNL1       -0.2281
     14 C          62.9700   82.8926   12.4096 C.ar    1  UNL1        0.0830
     15 C          63.4239   82.3019   11.1078 C.ar    1  UNL1        0.0215
     16 C          63.2625   80.8323   10.8541 C.ar    1  UNL1        0.0312
     17 C          62.6472   79.9534   11.9024 C.ar    1  UNL1        0.1402
     18 F          62.4859   78.4838   11.6488 F       1  UNL1       -0.2042
     19 C          62.1933   80.5441   13.2043 C.ar    1  UNL1        0.0312
     20 C          62.3547   82.0137   13.4579 C.ar    1  UNL1        0.0215
     21 C          65.2506   90.9994   14.2387 C.3     1  UNL1        0.0945
     22 C          65.0737   91.5743   12.8646 C.ar    1  UNL1       -0.0001
     23 C          63.7397   91.4928   12.1835 C.ar    1  UNL1        0.0181
     24 C          63.5628   92.0677   10.8094 C.ar    1  UNL1        0.1001
     25 N          64.7198   92.7240   10.1164 N.ar    1  UNL1       -0.2257
     26 C          66.0538   92.8055   10.7974 C.ar    1  UNL1        0.1860
     27 C          66.2308   92.2306   12.1715 C.ar    1  UNL1        0.0352
     28 S          67.2110   93.4618   10.1043 S.O2    1  UNL1        0.0268
     29 C          68.3680   94.1181    9.4112 C.3     1  UNL1        0.1834
     30 O          68.1561   92.5216   10.7918 O.2     1  UNL1       -0.1671
     31 O          66.2659   94.4020    9.4167 O.2     1  UNL1       -0.1671
     32 C          66.8971   92.4368   15.6434 C.3     1  UNL1        0.0021
     33 C          65.5143   91.9073   15.4033 C.3     1  UNL1        0.0241
@<TRIPOS>BOND
     1    32    33    1
     2    21    33    1
     3    21     1    1
     4     1     2   am
     5     2     3    2
     6     2     5    1
     7     5     6   ar
     8     6     7   ar
     9     7     8   ar
    10     8     9   ar
    11     9    10   ar
    12    10    11   ar
    13    11    12   ar
    14    12    13   ar
    15    13    14    1
    16    14    15   ar
    17    15    16   ar
    18    16    17   ar
    19    17    18    1
    20    17    19   ar
    21    19    20   ar
    22    21    22    1
    23    22    23   ar
    24    23    24   ar
    25    24    25   ar
    26    25    26   ar
    27    26    28    1
    28    28    29    1
    29    28    30    2
    30    28    31    2
    31    26    27   ar
    32    10     5   ar
    33    20    14   ar
    34    27    22   ar
    35    13     9   ar
    36     1     4    1
