@<TRIPOS>MOLECULE
*****
 66 73 0 0 0
SMALL
GASTEIGER

@<TRIPOS>ATOM
      1 N          65.6764   89.3047   14.5254 N.3     1  UNL1       -0.1862
      2 C          65.9533   88.0636   15.3208 C.3     1  UNL1        0.1775
      3 C          65.1391   86.8257   15.0871 C.2     1  UNL1        0.2452
      4 O          65.4161   85.5845   15.8826 O.2     1  UNL1       -0.2732
      5 N          64.0479   86.8289   14.0579 N.am    1  UNL1       -0.2541
      6 C          63.2337   85.5910   13.8242 C.3     1  UNL1        0.1577
      7 C          62.1425   85.5943   12.7950 C.2     1  UNL1        0.2445
      8 O          61.3283   84.3564   12.5613 O.2     1  UNL1       -0.2731
      9 N          61.8655   86.8355   11.9995 N.am    1  UNL1       -0.2705
     10 C          62.6797   88.0734   12.2332 C.3     1  UNL1        0.1359
     11 C          63.7710   88.0701   13.2625 C.3     1  UNL1        0.1908
     12 N          64.5852   89.3080   13.4962 N.am    1  UNL1       -0.1863
     13 C          64.3082   90.5492   12.7007 C.2     1  UNL1        0.3191
     14 O          63.2170   90.5524   11.6715 O.2     1  UNL1       -0.2512
     15 N          65.1225   91.7871   12.9344 N.am    1  UNL1       -0.2836
     16 H          65.8386   91.7849   13.6099 H       1  UNL1        0.1513
     17 C          66.4906   90.5426   14.7591 C.3     1  UNL1        0.1188
     18 C          66.8831   92.7544   16.0644 C.2     1  UNL1       -0.0034
     19 C          66.0015   91.5934   15.7112 C.2     1  UNL1       -0.0071
     20 C          63.5106   84.3499   14.6197 C.3     1  UNL1        0.0556
     21 C          63.2591   83.0001   14.0156 C.ar    1  UNL1       -0.0198
     22 C          64.0766   82.5378   12.8460 C.ar    1  UNL1       -0.0011
     23 C          63.8251   81.1881   12.2419 C.ar    1  UNL1        0.0363
     24 C          62.7561   80.3007   12.8073 C.ar    1  UNL1        0.1337
     25 O          62.5046   78.9510   12.2032 O.3     1  UNL1       -0.5055
     26 C          61.9386   80.7630   13.9769 C.ar    1  UNL1        0.0363
     27 C          62.1901   82.1127   14.5810 C.ar    1  UNL1       -0.0011
     28 H          63.0153   78.6621   11.4726 H       1  UNL1        0.2922
     29 C          60.7743   86.8387   10.9703 C.3     1  UNL1        0.1217
     30 C          60.3812   88.1208   10.2980 C.ar    1  UNL1        0.0135
     31 C          60.0445   89.3275   11.1228 C.ar    1  UNL1       -0.0012
     32 C          59.6514   90.6095   10.4506 C.ar    1  UNL1       -0.0002
     33 C          59.5950   90.6847    8.9536 C.ar    1  UNL1        0.0015
     34 C          59.9318   89.4780    8.1288 C.ar    1  UNL1        0.0170
     35 C          59.9643   89.2528    6.6462 C.ar    1  UNL1        0.0201
     36 C          60.3775   87.8317    6.4021 C.ar    1  UNL1        0.0760
     37 N          60.6003   87.1785    7.7338 N.ar    1  UNL1       -0.3242
     38 C          61.0242   85.7574    7.9589 C.3     1  UNL1        0.1305
     39 C          60.3249   88.1960    8.8010 C.ar    1  UNL1        0.0575
     40 C          59.6404   90.2703    5.5925 C.ar    1  UNL1        0.0208
     41 C          60.7371   90.8562    4.7535 C.ar    1  UNL1        0.0045
     42 C          60.4132   91.8736    3.7000 C.ar    1  UNL1        0.0345
     43 C          58.9927   92.3051    3.4854 C.ar    1  UNL1        0.1334
     44 N          57.8961   91.7191    4.3245 N.ar    1  UNL1       -0.2290
     45 C          58.2200   90.7017    5.3780 C.ar    1  UNL1        0.1003
     46 N          58.6689   93.3225    2.4319 N.am    1  UNL1       -0.2810
     47 H          57.9508   93.9782    2.5851 H       1  UNL1        0.1553
     48 C          59.4392   93.3407    1.1448 C.2     1  UNL1        0.1421
     49 S          60.7663   94.0364    1.0749 S.2     1  UNL1       -0.0181
     50 N          58.8824   92.6634   -0.0722 N.am    1  UNL1       -0.2635
     51 C          57.9874   93.4203   -1.0082 C.2     1  UNL1        0.2507
     52 O          57.6493   94.8544   -0.7272 O.2     1  UNL1       -0.2698
     53 H          59.1043   91.7222   -0.2566 H       1  UNL1        0.1568
     54 C          57.4305   92.7431   -2.2252 C.ar    1  UNL1        0.0537
     55 C          56.4239   91.6410   -2.0759 C.ar    1  UNL1        0.0045
     56 C          55.8671   90.9638   -3.2930 C.ar    1  UNL1        0.0001
     57 C          56.3168   91.3886   -4.6595 C.ar    1  UNL1        0.0000
     58 C          57.3234   92.4907   -4.8088 C.ar    1  UNL1        0.0001
     59 C          57.8802   93.1679   -3.5917 C.ar    1  UNL1        0.0045
     60 C          64.8455   93.0282   12.1389 C.3     1  UNL1        0.1177
     61 C          65.8456   93.5118   11.1310 C.ar    1  UNL1       -0.0025
     62 C          66.8173   92.5483   10.5166 C.ar    1  UNL1       -0.0026
     63 C          67.8174   93.0318    9.5087 C.ar    1  UNL1       -0.0003
     64 C          67.8458   94.4790    9.1151 C.ar    1  UNL1       -0.0000
     65 C          66.8741   95.4426    9.7294 C.ar    1  UNL1       -0.0003
     66 C          65.8740   94.9590   10.7374 C.ar    1  UNL1       -0.0026
@<TRIPOS>BOND
     1    18    19    2
     2    19    17    1
     3    17     1    1
     4     1     2    1
     5     2     3    1
     6     3     4    2
     7     3     5   am
     8     5     6    1
     9     6    20    1
    10    20    21    1
    11    21    22   ar
    12    22    23   ar
    13    23    24   ar
    14    24    25    1
    15    24    26   ar
    16    26    27   ar
    17     6     7    1
    18     7     8    2
    19     7     9   am
    20     9    29    1
    21    29    30    1
    22    30    31   ar
    23    31    32   ar
    24    32    33   ar
    25    33    34   ar
    26    34    35   ar
    27    35    40    1
    28    40    41   ar
    29    41    42   ar
    30    42    43   ar
    31    43    46    1
    32    46    48    1
    33    48    49    2
    34    48    50    1
    35    50    51   am
    36    51    52    2
    37    51    54    1
    38    54    55   ar
    39    55    56   ar
    40    56    57   ar
    41    57    58   ar
    42    58    59   ar
    43    43    44   ar
    44    44    45   ar
    45    35    36   ar
    46    36    37   ar
    47    37    38    1
    48    37    39   ar
    49     9    10    1
    50    11    10    1
    51    11    12    1
    52    12    13   am
    53    13    14    2
    54    13    15   am
    55    15    60    1
    56    60    61    1
    57    61    62   ar
    58    62    63   ar
    59    63    64   ar
    60    64    65   ar
    61    65    66   ar
    62    12     1    1
    63    66    61   ar
    64    11     5    1
    65    27    21   ar
    66    39    30   ar
    67    39    34   ar
    68    45    40   ar
    69    59    54   ar
    70    25    28    1
    71    46    47    1
    72    50    53    1
    73    15    16    1
@<TRIPOS>MOLECULE
*****
 66 73 0 0 0
SMALL
GASTEIGER

@<TRIPOS>ATOM
      1 N          65.5473   89.2847   14.5285 N.3     1  UNL1       -0.1862
      2 C          65.8054   88.0355   15.3177 C.3     1  UNL1        0.1775
      3 C          64.9979   86.7998   15.0514 C.2     1  UNL1        0.2452
      4 O          65.2561   85.5506   15.8407 O.2     1  UNL1       -0.2732
      5 N          63.9323   86.8132   13.9958 N.am    1  UNL1       -0.2541
      6 C          63.1248   85.5775   13.7295 C.3     1  UNL1        0.1577
      7 C          62.0592   85.5909   12.6739 C.2     1  UNL1        0.2445
      8 O          61.2517   84.3552   12.4076 O.2     1  UNL1       -0.2731
      9 N          61.8010   86.8401   11.8847 N.am    1  UNL1       -0.2705
     10 C          62.6085   88.0759   12.1510 C.3     1  UNL1        0.1359
     11 C          63.6742   88.0624   13.2066 C.3     1  UNL1        0.1908
     12 N          64.4816   89.2981   13.4730 N.am    1  UNL1       -0.1863
     13 C          64.2235   90.5473   12.6837 C.2     1  UNL1        0.3191
     14 O          63.1579   90.5608   11.6281 O.2     1  UNL1       -0.2512
     15 N          65.0309   91.7831   12.9500 N.am    1  UNL1       -0.2836
     16 H          65.7303   91.7742   13.6429 H       1  UNL1        0.1513
     17 C          66.3547   90.5204   14.7949 C.3     1  UNL1        0.1188
     18 C          66.6831   92.7014   16.1679 C.2     1  UNL1       -0.0034
     19 C          65.7868   91.6190   15.6437 C.2     1  UNL1       -0.0071
     20 C          63.3830   84.3283   14.5187 C.3     1  UNL1        0.0556
     21 C          63.1698   82.9846   13.8870 C.ar    1  UNL1       -0.0198
     22 C          63.9698   82.5868   12.6822 C.ar    1  UNL1       -0.0011
     23 C          63.7566   81.2431   12.0506 C.ar    1  UNL1        0.0363
     24 C          62.7434   80.2972   12.6238 C.ar    1  UNL1        0.1337
     25 O          62.5302   78.9534   11.9921 O.3     1  UNL1       -0.5055
     26 C          61.9433   80.6949   13.8286 C.ar    1  UNL1        0.0363
     27 C          62.1565   82.0387   14.4603 C.ar    1  UNL1       -0.0011
     28 H          63.0299   78.7049   11.2395 H       1  UNL1        0.2922
     29 C          60.7354   86.8536   10.8291 C.3     1  UNL1        0.1217
     30 C          60.3553   88.1430   10.1634 C.ar    1  UNL1        0.0135
     31 C          59.9884   89.3364   10.9946 C.ar    1  UNL1       -0.0012
     32 C          59.6083   90.6258   10.3290 C.ar    1  UNL1       -0.0002
     33 C          59.5952   90.7216    8.8322 C.ar    1  UNL1        0.0015
     34 C          59.9621   89.5282    8.0010 C.ar    1  UNL1        0.0170
     35 C          60.0388   89.3239    6.5169 C.ar    1  UNL1        0.0201
     36 C          60.4664   87.9083    6.2654 C.ar    1  UNL1        0.0760
     37 N          60.6538   87.2377    7.5939 N.ar    1  UNL1       -0.3242
     38 C          61.0784   85.8156    7.8116 C.3     1  UNL1        0.1305
     39 C          60.3421   88.2388    8.6666 C.ar    1  UNL1        0.0575
     40 C          59.7405   90.3544    5.4685 C.ar    1  UNL1        0.0208
     41 C          60.8519   90.9196    4.6346 C.ar    1  UNL1        0.0045
     42 C          60.5534   91.9500    3.5862 C.ar    1  UNL1        0.0345
     43 C          59.1437   92.4152    3.3717 C.ar    1  UNL1        0.1334
     44 N          58.0322   91.8500    4.2056 N.ar    1  UNL1       -0.2290
     45 C          58.3307   90.8196    5.2539 C.ar    1  UNL1        0.1003
     46 N          58.8453   93.4457    2.3233 N.am    1  UNL1       -0.2810
     47 H          58.1177   94.0940    2.4633 H       1  UNL1        0.1553
     48 C          59.6554   93.4884    1.0615 C.2     1  UNL1        0.1421
     49 S          59.3243   92.5658   -0.0739 S.2     1  UNL1       -0.0181
     50 N          60.7965   94.4537    0.9353 N.am    1  UNL1       -0.2635
     51 C          62.2053   93.9439    0.8616 C.2     1  UNL1        0.2507
     52 O          62.4729   92.4689    0.9142 O.2     1  UNL1       -0.2698
     53 H          60.6209   95.4218    0.9007 H       1  UNL1        0.1568
     54 C          63.3465   94.9091    0.7353 C.ar    1  UNL1        0.0537
     55 C          63.6620   95.8491    1.8609 C.ar    1  UNL1        0.0045
     56 C          64.8032   96.8142    1.7346 C.ar    1  UNL1        0.0001
     57 C          65.6290   96.8396    0.4826 C.ar    1  UNL1        0.0000
     58 C          65.3135   95.8996   -0.6430 C.ar    1  UNL1        0.0001
     59 C          64.1723   94.9345   -0.5167 C.ar    1  UNL1        0.0045
     60 C          64.7728   93.0322   12.1608 C.3     1  UNL1        0.1177
     61 C          65.7935   93.5221   11.1769 C.ar    1  UNL1       -0.0025
     62 C          65.7960   94.9607   10.7524 C.ar    1  UNL1       -0.0026
     63 C          66.8167   95.4506    9.7684 C.ar    1  UNL1       -0.0003
     64 C          67.8350   94.5019    9.2090 C.ar    1  UNL1       -0.0000
     65 C          67.8326   93.0632    9.6336 C.ar    1  UNL1       -0.0003
     66 C          66.8118   92.5733   10.6175 C.ar    1  UNL1       -0.0026
@<TRIPOS>BOND
     1    18    19    2
     2    19    17    1
     3    17     1    1
     4     1     2    1
     5     2     3    1
     6     3     4    2
     7     3     5   am
     8     5     6    1
     9     6    20    1
    10    20    21    1
    11    21    22   ar
    12    22    23   ar
    13    23    24   ar
    14    24    25    1
    15    24    26   ar
    16    26    27   ar
    17     6     7    1
    18     7     8    2
    19     7     9   am
    20     9    29    1
    21    29    30    1
    22    30    31   ar
    23    31    32   ar
    24    32    33   ar
    25    33    34   ar
    26    34    35   ar
    27    35    40    1
    28    40    41   ar
    29    41    42   ar
    30    42    43   ar
    31    43    46    1
    32    46    48    1
    33    48    49    2
    34    48    50    1
    35    50    51   am
    36    51    52    2
    37    51    54    1
    38    54    55   ar
    39    55    56   ar
    40    56    57   ar
    41    57    58   ar
    42    58    59   ar
    43    43    44   ar
    44    44    45   ar
    45    35    36   ar
    46    36    37   ar
    47    37    38    1
    48    37    39   ar
    49     9    10    1
    50    11    10    1
    51    11    12    1
    52    12    13   am
    53    13    14    2
    54    13    15   am
    55    15    60    1
    56    60    61    1
    57    61    62   ar
    58    62    63   ar
    59    63    64   ar
    60    64    65   ar
    61    65    66   ar
    62    12     1    1
    63    66    61   ar
    64    11     5    1
    65    27    21   ar
    66    39    30   ar
    67    39    34   ar
    68    45    40   ar
    69    59    54   ar
    70    25    28    1
    71    46    47    1
    72    50    53    1
    73    15    16    1
@<TRIPOS>MOLECULE
*****
 66 73 0 0 0
SMALL
GASTEIGER

@<TRIPOS>ATOM
      1 N          64.4999   83.1223   13.3549 N.3     1  UNL1       -0.1862
      2 C          65.0830   83.9665   14.4491 C.3     1  UNL1        0.1775
      3 C          64.6645   85.3996   14.5945 C.2     1  UNL1        0.2452
      4 O          65.2476   86.2439   15.6887 O.2     1  UNL1       -0.2732
      5 N          63.6629   85.9884   13.6458 N.am    1  UNL1       -0.2541
      6 C          63.2444   87.4215   13.7912 C.3     1  UNL1        0.1577
      7 C          62.2428   88.0103   12.8425 C.2     1  UNL1        0.2445
      8 O          61.8243   89.4434   12.9880 O.2     1  UNL1       -0.2731
      9 N          61.6597   87.1660   11.7483 N.am    1  UNL1       -0.2705
     10 C          62.0782   85.7329   11.6029 C.3     1  UNL1        0.1359
     11 C          63.0798   85.1441   12.5517 C.3     1  UNL1        0.1908
     12 N          63.4983   83.7111   12.4062 N.am    1  UNL1       -0.1863
     13 C          62.9152   82.8668   11.3120 C.2     1  UNL1        0.3191
     14 O          61.9136   83.4556   10.3633 O.2     1  UNL1       -0.2512
     15 N          63.3337   81.4337   11.1666 N.am    1  UNL1       -0.2836
     16 H          63.9911   81.0473   11.7892 H       1  UNL1        0.1513
     17 C          64.9184   81.6892   13.2095 C.3     1  UNL1        0.1188
     18 C          62.7565   80.4979   14.0200 C.2     1  UNL1       -0.0034
     19 C          64.2510   80.6259   14.0305 C.2     1  UNL1       -0.0071
     20 C          63.8275   88.2657   14.8854 C.3     1  UNL1        0.0556
     21 C          64.3623   89.6322   14.5742 C.ar    1  UNL1       -0.0198
     22 C          64.6821   90.5840   15.6885 C.ar    1  UNL1       -0.0011
     23 C          65.2170   91.9505   15.3773 C.ar    1  UNL1        0.0363
     24 C          65.4319   92.3651   13.9519 C.ar    1  UNL1        0.1337
     25 O          65.9667   93.7315   13.6407 O.3     1  UNL1       -0.5055
     26 C          65.1120   91.4132   12.8375 C.ar    1  UNL1        0.0363
     27 C          64.5772   90.0467   13.1487 C.ar    1  UNL1       -0.0011
     28 H          66.1665   94.3261   14.3368 H       1  UNL1        0.2922
     29 C          60.6581   87.7548   10.7996 C.3     1  UNL1        0.1217
     30 C          61.0500   88.8957    9.9080 C.ar    1  UNL1        0.0135
     31 C          62.0788   89.8865   10.3663 C.ar    1  UNL1       -0.0012
     32 C          62.4707   91.0273    9.4747 C.ar    1  UNL1       -0.0002
     33 C          61.8340   91.1773    8.1249 C.ar    1  UNL1        0.0015
     34 C          60.8053   90.1864    7.6667 C.ar    1  UNL1        0.0170
     35 C          60.0119   90.0773    6.3983 C.ar    1  UNL1        0.0201
     36 C          59.1296   88.8690    6.5061 C.ar    1  UNL1        0.0760
     37 N          59.3777   88.2314    7.8409 N.ar    1  UNL1       -0.3242
     38 C          58.7078   86.9965    8.3662 C.3     1  UNL1        0.1305
     39 C          60.4133   89.0456    8.5582 C.ar    1  UNL1        0.0575
     40 C          60.0876   91.0123    5.2278 C.ar    1  UNL1        0.0208
     41 C          61.3803   91.1824    4.4861 C.ar    1  UNL1        0.0045
     42 C          61.4558   92.1174    3.3156 C.ar    1  UNL1        0.0345
     43 C          60.2388   92.8822    2.8868 C.ar    1  UNL1        0.1334
     44 N          58.9462   92.7121    3.6285 N.ar    1  UNL1       -0.2290
     45 C          58.8706   91.7771    4.7989 C.ar    1  UNL1        0.1003
     46 N          60.3145   93.8172    1.7163 N.am    1  UNL1       -0.2810
     47 H          59.9855   94.7411    1.8022 H       1  UNL1        0.1553
     48 C          60.8915   93.3445    0.4148 C.2     1  UNL1        0.1421
     49 S          62.3470   93.5548    0.1194 S.2     1  UNL1       -0.0181
     50 N          60.0130   92.6617   -0.5911 N.am    1  UNL1       -0.2635
     51 C          58.7285   93.3043   -1.0237 C.2     1  UNL1        0.2507
     52 O          58.3225   94.6296   -0.4503 O.2     1  UNL1       -0.2698
     53 H          60.2794   91.7919   -0.9674 H       1  UNL1        0.1568
     54 C          57.8499   92.6216   -2.0296 C.ar    1  UNL1        0.0537
     55 C          56.5741   91.9667   -1.5894 C.ar    1  UNL1        0.0045
     56 C          55.6956   91.2840   -2.5954 C.ar    1  UNL1        0.0001
     57 C          56.0927   91.2561   -4.0416 C.ar    1  UNL1        0.0000
     58 C          57.3685   91.9109   -4.4818 C.ar    1  UNL1        0.0001
     59 C          58.2470   92.5936   -3.4758 C.ar    1  UNL1        0.0045
     60 C          62.7506   80.5895   10.0724 C.3     1  UNL1        0.1177
     61 C          63.1020   79.1341    9.9799 C.ar    1  UNL1       -0.0025
     62 C          62.4860   78.1519   10.9316 C.ar    1  UNL1       -0.0026
     63 C          62.8374   76.6966   10.8391 C.ar    1  UNL1       -0.0003
     64 C          63.8048   76.2235    9.7949 C.ar    1  UNL1       -0.0000
     65 C          64.4208   77.2058    8.8431 C.ar    1  UNL1       -0.0003
     66 C          64.0694   78.6611    8.9357 C.ar    1  UNL1       -0.0026
@<TRIPOS>BOND
     1    18    19    2
     2    19    17    1
     3    17     1    1
     4     1     2    1
     5     2     3    1
     6     3     4    2
     7     3     5   am
     8     5     6    1
     9     6    20    1
    10    20    21    1
    11    21    22   ar
    12    22    23   ar
    13    23    24   ar
    14    24    25    1
    15    24    26   ar
    16    26    27   ar
    17     6     7    1
    18     7     8    2
    19     7     9   am
    20     9    29    1
    21    29    30    1
    22    30    31   ar
    23    31    32   ar
    24    32    33   ar
    25    33    34   ar
    26    34    35   ar
    27    35    40    1
    28    40    41   ar
    29    41    42   ar
    30    42    43   ar
    31    43    46    1
    32    46    48    1
    33    48    49    2
    34    48    50    1
    35    50    51   am
    36    51    52    2
    37    51    54    1
    38    54    55   ar
    39    55    56   ar
    40    56    57   ar
    41    57    58   ar
    42    58    59   ar
    43    43    44   ar
    44    44    45   ar
    45    35    36   ar
    46    36    37   ar
    47    37    38    1
    48    37    39   ar
    49     9    10    1
    50    11    10    1
    51    11    12    1
    52    12    13   am
    53    13    14    2
    54    13    15   am
    55    15    60    1
    56    60    61    1
    57    61    62   ar
    58    62    63   ar
    59    63    64   ar
    60    64    65   ar
    61    65    66   ar
    62    12     1    1
    63    66    61   ar
    64    11     5    1
    65    27    21   ar
    66    39    30   ar
    67    39    34   ar
    68    45    40   ar
    69    59    54   ar
    70    25    28    1
    71    46    47    1
    72    50    53    1
    73    15    16    1
@<TRIPOS>MOLECULE
*****
 66 73 0 0 0
SMALL
GASTEIGER

@<TRIPOS>ATOM
      1 N          64.4772   83.1258   13.3586 N.3     1  UNL1       -0.1862
      2 C          65.0673   83.9783   14.4425 C.3     1  UNL1        0.1775
      3 C          64.6556   85.4146   14.5749 C.2     1  UNL1        0.2452
      4 O          65.2458   86.2671   15.6589 O.2     1  UNL1       -0.2732
      5 N          63.6539   85.9984   13.6233 N.am    1  UNL1       -0.2541
      6 C          63.2422   87.4347   13.7556 C.3     1  UNL1        0.1577
      7 C          62.2404   88.0185   12.8040 C.2     1  UNL1        0.2445
      8 O          61.8287   89.4548   12.9363 O.2     1  UNL1       -0.2731
      9 N          61.6503   87.1660   11.7200 N.am    1  UNL1       -0.2705
     10 C          62.0620   85.7297   11.5876 C.3     1  UNL1        0.1359
     11 C          63.0638   85.1459   12.5393 C.3     1  UNL1        0.1908
     12 N          63.4755   83.7096   12.4070 N.am    1  UNL1       -0.1863
     13 C          62.8853   82.8570   11.3230 C.2     1  UNL1        0.3191
     14 O          61.8836   83.4408   10.3714 O.2     1  UNL1       -0.2512
     15 N          63.2970   81.4207   11.1907 N.am    1  UNL1       -0.2836
     16 H          63.9545   81.0375   11.8153 H       1  UNL1        0.1513
     17 C          64.8889   81.6894   13.2263 C.3     1  UNL1        0.1188
     18 C          62.7602   80.4122   13.9925 C.2     1  UNL1       -0.0034
     19 C          64.2399   80.6414   14.0809 C.2     1  UNL1       -0.0071
     20 C          63.8323   88.2872   14.8395 C.3     1  UNL1        0.0556
     21 C          64.3684   89.6498   14.5139 C.ar    1  UNL1       -0.0198
     22 C          64.5526   90.0610   13.0832 C.ar    1  UNL1       -0.0011
     23 C          65.0888   91.4236   12.7576 C.ar    1  UNL1        0.0363
     24 C          65.4407   92.3749   13.8626 C.ar    1  UNL1        0.1337
     25 O          65.9768   93.7374   13.5370 O.3     1  UNL1       -0.5055
     26 C          65.2565   91.9636   15.2934 C.ar    1  UNL1        0.0363
     27 C          64.7203   90.6011   15.6190 C.ar    1  UNL1       -0.0011
     28 H          66.0919   93.9943   12.6433 H       1  UNL1        0.2922
     29 C          60.6485   87.7498   10.7683 C.3     1  UNL1        0.1217
     30 C          61.0397   88.8873    9.8721 C.ar    1  UNL1        0.0135
     31 C          62.0770   89.8733   10.3212 C.ar    1  UNL1       -0.0012
     32 C          62.4683   91.0108    9.4250 C.ar    1  UNL1       -0.0002
     33 C          61.8222   91.1621    8.0798 C.ar    1  UNL1        0.0015
     34 C          60.7849   90.1761    7.6308 C.ar    1  UNL1        0.0170
     35 C          59.9814   90.0692    6.3686 C.ar    1  UNL1        0.0201
     36 C          59.0936   88.8658    6.4847 C.ar    1  UNL1        0.0760
     37 N          59.3484   88.2288    7.8186 N.ar    1  UNL1       -0.3242
     38 C          58.6760   86.9981    8.3508 C.3     1  UNL1        0.1305
     39 C          60.3936   89.0386    8.5269 C.ar    1  UNL1        0.0575
     40 C          60.0531   91.0021    5.1961 C.ar    1  UNL1        0.0208
     41 C          61.3461   91.1792    4.4566 C.ar    1  UNL1        0.0045
     42 C          61.4178   92.1120    3.2842 C.ar    1  UNL1        0.0345
     43 C          60.1966   92.8679    2.8513 C.ar    1  UNL1        0.1334
     44 N          58.9036   92.6909    3.5909 N.ar    1  UNL1       -0.2290
     45 C          58.8320   91.7580    4.7633 C.ar    1  UNL1        0.1003
     46 N          60.2683   93.8007    1.6789 N.am    1  UNL1       -0.2810
     47 H          60.5154   94.7440    1.8148 H       1  UNL1        0.1553
     48 C          59.9637   93.2965    0.2994 C.2     1  UNL1        0.1421
     49 S          58.8037   92.3716    0.0781 S.2     1  UNL1       -0.0181
     50 N          60.8190   93.7172   -0.8588 N.am    1  UNL1       -0.2635
     51 C          62.3128   93.6216   -0.7616 C.2     1  UNL1        0.2507
     52 O          62.9512   93.1053    0.4938 O.2     1  UNL1       -0.2698
     53 H          60.4000   94.0561   -1.6827 H       1  UNL1        0.1568
     54 C          63.1682   94.0423   -1.9197 C.ar    1  UNL1        0.0537
     55 C          64.0021   95.2855   -1.8237 C.ar    1  UNL1        0.0045
     56 C          64.8575   95.7061   -2.9819 C.ar    1  UNL1        0.0001
     57 C          64.8790   94.8836   -4.2361 C.ar    1  UNL1        0.0000
     58 C          64.0451   93.6405   -4.3321 C.ar    1  UNL1        0.0001
     59 C          63.1897   93.2199   -3.1739 C.ar    1  UNL1        0.0045
     60 C          62.7069   80.5682   10.1067 C.3     1  UNL1        0.1177
     61 C          63.0876   79.1212    9.9996 C.ar    1  UNL1       -0.0025
     62 C          64.0435   78.6741    8.9337 C.ar    1  UNL1       -0.0026
     63 C          64.4242   77.2272    8.8266 C.ar    1  UNL1       -0.0003
     64 C          63.8490   76.2274    9.7854 C.ar    1  UNL1       -0.0000
     65 C          62.8930   76.6745   10.8515 C.ar    1  UNL1       -0.0003
     66 C          62.5123   78.1214   10.9586 C.ar    1  UNL1       -0.0026
@<TRIPOS>BOND
     1    18    19    2
     2    19    17    1
     3    17     1    1
     4     1     2    1
     5     2     3    1
     6     3     4    2
     7     3     5   am
     8     5     6    1
     9     6    20    1
    10    20    21    1
    11    21    22   ar
    12    22    23   ar
    13    23    24   ar
    14    24    25    1
    15    24    26   ar
    16    26    27   ar
    17     6     7    1
    18     7     8    2
    19     7     9   am
    20     9    29    1
    21    29    30    1
    22    30    31   ar
    23    31    32   ar
    24    32    33   ar
    25    33    34   ar
    26    34    35   ar
    27    35    40    1
    28    40    41   ar
    29    41    42   ar
    30    42    43   ar
    31    43    46    1
    32    46    48    1
    33    48    49    2
    34    48    50    1
    35    50    51   am
    36    51    52    2
    37    51    54    1
    38    54    55   ar
    39    55    56   ar
    40    56    57   ar
    41    57    58   ar
    42    58    59   ar
    43    43    44   ar
    44    44    45   ar
    45    35    36   ar
    46    36    37   ar
    47    37    38    1
    48    37    39   ar
    49     9    10    1
    50    11    10    1
    51    11    12    1
    52    12    13   am
    53    13    14    2
    54    13    15   am
    55    15    60    1
    56    60    61    1
    57    61    62   ar
    58    62    63   ar
    59    63    64   ar
    60    64    65   ar
    61    65    66   ar
    62    12     1    1
    63    66    61   ar
    64    11     5    1
    65    27    21   ar
    66    39    30   ar
    67    39    34   ar
    68    45    40   ar
    69    59    54   ar
    70    25    28    1
    71    46    47    1
    72    50    53    1
    73    15    16    1
