@<TRIPOS>MOLECULE
*****
 27 29 0 0 0
SMALL
GASTEIGER

@<TRIPOS>ATOM
      1 C          63.9623   84.3946   13.9809 C.ar    1  UNL1        0.1464
      2 C          63.8616   82.8982   13.9551 C.ar    1  UNL1        0.0489
      3 C          63.2091   82.2103   12.7927 C.ar    1  UNL1        0.0609
      4 CL         63.1084   80.7139   12.7670 Cl      1  UNL1       -0.0821
      5 C          62.6572   83.0188   11.6562 C.ar    1  UNL1        0.0161
      6 C          62.7578   84.5152   11.6820 C.ar    1  UNL1        0.0576
      7 C          63.4104   85.2031   12.8442 C.ar    1  UNL1        0.0421
      8 C          62.2060   85.3236   10.5454 C.2     1  UNL1        0.2507
      9 O          62.7917   85.1837    9.1716 O.2     1  UNL1       -0.2698
     10 N          61.0683   86.2721   10.7827 N.am    1  UNL1       -0.2658
     11 H          60.6839   86.3639   11.6844 H       1  UNL1        0.1566
     12 C          60.5164   87.0806    9.6462 C.ar    1  UNL1        0.1345
     13 C          60.7176   88.5667    9.6159 C.ar    1  UNL1        0.0368
     14 C          60.1658   89.3753    8.4793 C.ar    1  UNL1        0.0341
     15 C          59.4127   88.6977    7.3731 C.ar    1  UNL1        0.1593
     16 F          58.8608   89.5061    6.2366 F       1  UNL1       -0.2025
     17 C          59.2115   87.2115    7.4034 C.ar    1  UNL1        0.1298
     18 N          59.7633   86.4030    8.5400 N.ar    1  UNL1       -0.2267
     19 O          64.6148   85.0825   15.1431 O.3     1  UNL1       -0.4519
     20 C          63.9340   88.9887   15.3099 C.ar    1  UNL1        0.0906
     21 C          63.0840   89.0760   16.5427 C.ar    1  UNL1        0.1093
     22 N          62.7443   87.8320   17.3090 N.ar    1  UNL1       -0.2384
     23 C          63.2545   86.5009   16.8425 C.ar    1  UNL1        0.1363
     24 C          64.1045   86.4137   15.6097 C.ar    1  UNL1        0.1650
     25 C          64.4443   87.6576   14.8434 C.ar    1  UNL1        0.0509
     26 N          64.6136   91.4766   13.7773 N.1     1  UNL1       -0.1908
     27 C          64.2738   90.2327   14.5436 C.1     1  UNL1        0.1021
@<TRIPOS>BOND
     1    26    27    3
     2    27    20    1
     3    20    21   ar
     4    21    22   ar
     5    22    23   ar
     6    23    24   ar
     7    24    19    1
     8    19     1    1
     9     1     2   ar
    10     2     3   ar
    11     3     4    1
    12     3     5   ar
    13     5     6   ar
    14     6     8    1
    15     8     9    2
    16     8    10   am
    17    10    12    1
    18    12    13   ar
    19    13    14   ar
    20    14    15   ar
    21    15    16    1
    22    15    17   ar
    23    17    18   ar
    24     6     7   ar
    25    24    25   ar
    26    25    20   ar
    27     7     1   ar
    28    18    12   ar
    29    10    11    1
@<TRIPOS>MOLECULE
*****
 27 29 0 0 0
SMALL
GASTEIGER

@<TRIPOS>ATOM
      1 C          61.6216   87.7836   10.7177 C.ar    1  UNL1        0.1464
      2 C          60.3682   88.6072   10.6911 C.ar    1  UNL1        0.0489
      3 C          60.2824   89.8688   11.4981 C.ar    1  UNL1        0.0609
      4 CL         59.0291   90.6924   11.4714 Cl      1  UNL1       -0.0821
      5 C          61.4500   90.3067   12.3317 C.ar    1  UNL1        0.0161
      6 C          62.7034   89.4831   12.3583 C.ar    1  UNL1        0.0576
      7 C          62.7892   88.2216   11.5514 C.ar    1  UNL1        0.0421
      8 C          63.8710   89.9210   13.1919 C.2     1  UNL1        0.2507
      9 O          64.5086   88.9614   14.1525 O.2     1  UNL1       -0.2698
     10 N          64.4011   91.3185   13.0649 N.am    1  UNL1       -0.2658
     11 H          63.9826   91.9483   12.4344 H       1  UNL1        0.1566
     12 C          65.5687   91.7564   13.8985 C.ar    1  UNL1        0.1345
     13 C          66.9520   91.7405   13.3187 C.ar    1  UNL1        0.0368
     14 C          68.1197   92.1785   14.1523 C.ar    1  UNL1        0.0341
     15 C          67.9039   92.6322   15.5657 C.ar    1  UNL1        0.1593
     16 F          69.0715   93.0701   16.3993 F       1  UNL1       -0.2025
     17 C          66.5205   92.6480   16.1454 C.ar    1  UNL1        0.1298
     18 N          65.3530   92.2101   15.3119 N.ar    1  UNL1       -0.2267
     19 O          61.7073   86.5221    9.9108 O.3     1  UNL1       -0.4519
     20 C          63.1443   83.8030   12.4192 C.ar    1  UNL1        0.0906
     21 C          64.0010   82.9895   11.4950 C.ar    1  UNL1        0.1093
     22 N          64.0932   83.3534   10.0428 N.ar    1  UNL1       -0.2384
     23 C          63.3286   84.5309    9.5147 C.ar    1  UNL1        0.1363
     24 C          62.4719   85.3445   10.4389 C.ar    1  UNL1        0.1650
     25 C          62.3797   84.9805   11.8911 C.ar    1  UNL1        0.0509
     26 N          62.9599   83.0751   15.3237 N.1     1  UNL1       -0.1908
     27 C          63.0521   83.4390   13.8715 C.1     1  UNL1        0.1021
@<TRIPOS>BOND
     1    26    27    3
     2    27    20    1
     3    20    21   ar
     4    21    22   ar
     5    22    23   ar
     6    23    24   ar
     7    24    19    1
     8    19     1    1
     9     1     2   ar
    10     2     3   ar
    11     3     4    1
    12     3     5   ar
    13     5     6   ar
    14     6     8    1
    15     8     9    2
    16     8    10   am
    17    10    12    1
    18    12    13   ar
    19    13    14   ar
    20    14    15   ar
    21    15    16    1
    22    15    17   ar
    23    17    18   ar
    24     6     7   ar
    25    24    25   ar
    26    25    20   ar
    27     7     1   ar
    28    18    12   ar
    29    10    11    1
@<TRIPOS>MOLECULE
*****
 27 29 0 0 0
SMALL
GASTEIGER

@<TRIPOS>ATOM
      1 C          62.0108   86.2414    9.2431 C.ar    1  UNL1        0.1464
      2 C          60.9044   86.6762    8.3283 C.ar    1  UNL1        0.0489
      3 C          60.2926   88.0369    8.4852 C.ar    1  UNL1        0.0609
      4 CL         59.1862   88.4717    7.5705 Cl      1  UNL1       -0.0821
      5 C          60.7874   88.9626    9.5567 C.ar    1  UNL1        0.0161
      6 C          61.8938   88.5278   10.4714 C.ar    1  UNL1        0.0576
      7 C          62.5055   87.1672   10.3146 C.ar    1  UNL1        0.0421
      8 C          62.3885   89.4535   11.5429 C.2     1  UNL1        0.2507
      9 O          62.0940   90.9220   11.4601 O.2     1  UNL1       -0.2698
     10 N          63.1778   88.9108   12.6974 N.am    1  UNL1       -0.2658
     11 H          63.3711   87.9470   12.7517 H       1  UNL1        0.1566
     12 C          63.6725   89.8366   13.7689 C.ar    1  UNL1        0.1345
     13 C          64.8588   90.7173   13.5101 C.ar    1  UNL1        0.0368
     14 C          65.3536   91.6431   14.5816 C.ar    1  UNL1        0.0341
     15 C          64.6620   91.6881   15.9119 C.ar    1  UNL1        0.1593
     16 F          65.1567   92.6139   16.9835 F       1  UNL1       -0.2025
     17 C          63.4756   90.8074   16.1707 C.ar    1  UNL1        0.1298
     18 N          62.9809   89.8816   15.0992 N.ar    1  UNL1       -0.2267
     19 O          62.6226   84.8808    9.0863 O.3     1  UNL1       -0.4519
     20 C          63.1919   83.7859   12.8581 C.ar    1  UNL1        0.0906
     21 C          64.2129   82.7004   12.6872 C.ar    1  UNL1        0.1093
     22 N          64.7039   82.3418   11.3159 N.ar    1  UNL1       -0.2384
     23 C          64.1738   83.0686   10.1156 C.ar    1  UNL1        0.1363
     24 C          63.1527   84.1540   10.2866 C.ar    1  UNL1        0.1650
     25 C          62.6618   84.5126   11.6579 C.ar    1  UNL1        0.0509
     26 N          62.2100   84.5031   15.6007 N.1     1  UNL1       -0.1908
     27 C          62.7009   84.1445   14.2294 C.1     1  UNL1        0.1021
@<TRIPOS>BOND
     1    26    27    3
     2    27    20    1
     3    20    21   ar
     4    21    22   ar
     5    22    23   ar
     6    23    24   ar
     7    24    19    1
     8    19     1    1
     9     1     2   ar
    10     2     3   ar
    11     3     4    1
    12     3     5   ar
    13     5     6   ar
    14     6     8    1
    15     8     9    2
    16     8    10   am
    17    10    12    1
    18    12    13   ar
    19    13    14   ar
    20    14    15   ar
    21    15    16    1
    22    15    17   ar
    23    17    18   ar
    24     6     7   ar
    25    24    25   ar
    26    25    20   ar
    27     7     1   ar
    28    18    12   ar
    29    10    11    1
@<TRIPOS>MOLECULE
*****
 27 29 0 0 0
SMALL
GASTEIGER

@<TRIPOS>ATOM
      1 C          64.4268   85.6842   15.2443 C.ar    1  UNL1        0.1464
      2 C          63.6653   85.6265   16.5353 C.ar    1  UNL1        0.0489
      3 C          63.0933   86.8814   17.1254 C.ar    1  UNL1        0.0609
      4 CL         62.3318   86.8237   18.4164 Cl      1  UNL1       -0.0821
      5 C          63.2828   88.1939   16.4244 C.ar    1  UNL1        0.0161
      6 C          64.0444   88.2516   15.1334 C.ar    1  UNL1        0.0576
      7 C          64.6163   86.9968   14.5433 C.ar    1  UNL1        0.0421
      8 C          64.2339   89.5641   14.4325 C.2     1  UNL1        0.2507
      9 O          63.0982   90.1768   13.6678 O.2     1  UNL1       -0.2698
     10 N          65.5592   90.2639   14.4962 N.am    1  UNL1       -0.2658
     11 H          66.3046   89.8617   14.9982 H       1  UNL1        0.1566
     12 C          65.7487   91.5764   13.7953 C.ar    1  UNL1        0.1345
     13 C          65.3055   91.7370   12.3713 C.ar    1  UNL1        0.0368
     14 C          65.4951   93.0496   11.6703 C.ar    1  UNL1        0.0341
     15 C          66.1278   94.2015   12.3934 C.ar    1  UNL1        0.1593
     16 F          66.3174   95.5140   11.6924 F       1  UNL1       -0.2025
     17 C          66.5710   94.0408   13.8174 C.ar    1  UNL1        0.1298
     18 N          66.3815   92.7283   14.5183 N.ar    1  UNL1       -0.2267
     19 O          64.9987   84.4294   14.6542 O.3     1  UNL1       -0.4519
     20 C          62.1978   81.9289   13.3686 C.ar    1  UNL1        0.0906
     21 C          62.4997   81.8960   11.8997 C.ar    1  UNL1        0.1093
     22 N          63.6346   82.7076   11.3489 N.ar    1  UNL1       -0.2384
     23 C          64.4676   83.5520   12.2670 C.ar    1  UNL1        0.1363
     24 C          64.1657   83.5849   13.7360 C.ar    1  UNL1        0.1650
     25 C          63.0308   82.7733   14.2867 C.ar    1  UNL1        0.0509
     26 N          59.9280   80.3057   14.4702 N.1     1  UNL1       -0.1908
     27 C          61.0629   81.1173   13.9194 C.1     1  UNL1        0.1021
@<TRIPOS>BOND
     1    26    27    3
     2    27    20    1
     3    20    21   ar
     4    21    22   ar
     5    22    23   ar
     6    23    24   ar
     7    24    19    1
     8    19     1    1
     9     1     2   ar
    10     2     3   ar
    11     3     4    1
    12     3     5   ar
    13     5     6   ar
    14     6     8    1
    15     8     9    2
    16     8    10   am
    17    10    12    1
    18    12    13   ar
    19    13    14   ar
    20    14    15   ar
    21    15    16    1
    22    15    17   ar
    23    17    18   ar
    24     6     7   ar
    25    24    25   ar
    26    25    20   ar
    27     7     1   ar
    28    18    12   ar
    29    10    11    1
@<TRIPOS>MOLECULE
*****
 27 29 0 0 0
SMALL
GASTEIGER

@<TRIPOS>ATOM
      1 C          65.2770   91.8980   13.6668 C.ar    1  UNL1        0.1464
      2 C          64.8792   91.5254   15.0642 C.ar    1  UNL1        0.0489
      3 C          63.8112   90.4967   15.2909 C.ar    1  UNL1        0.0609
      4 CL         63.4133   90.1241   16.6884 Cl      1  UNL1       -0.0821
      5 C          63.1410   89.8408   14.1202 C.ar    1  UNL1        0.0161
      6 C          63.5389   90.2134   12.7228 C.ar    1  UNL1        0.0576
      7 C          64.6068   91.2420   12.4960 C.ar    1  UNL1        0.0421
      8 C          62.8687   89.5574   11.5521 C.2     1  UNL1        0.2507
      9 O          62.7475   90.2911   10.2494 O.2     1  UNL1       -0.2698
     10 N          62.3198   88.1677   11.6840 N.am    1  UNL1       -0.2658
     11 H          62.3994   87.6861   12.5390 H       1  UNL1        0.1566
     12 C          61.6497   87.5117   10.5133 C.ar    1  UNL1        0.1345
     13 C          62.4088   86.5346    9.6654 C.ar    1  UNL1        0.0368
     14 C          61.7387   85.8786    8.4946 C.ar    1  UNL1        0.0341
     15 C          60.3095   86.1997    8.1718 C.ar    1  UNL1        0.1593
     16 F          59.6394   85.5437    7.0011 F       1  UNL1       -0.2025
     17 C          59.5504   87.1769    9.0198 C.ar    1  UNL1        0.1298
     18 N          60.2205   87.8328   10.1905 N.ar    1  UNL1       -0.2267
     19 O          66.3449   92.9266   13.4400 O.3     1  UNL1       -0.4519
     20 C          66.9824   94.5249    9.8638 C.ar    1  UNL1        0.0906
     21 C          68.0021   93.5761    9.3070 C.ar    1  UNL1        0.1093
     22 N          68.4694   92.4108   10.1278 N.ar    1  UNL1       -0.2384
     23 C          67.9170   92.1943   11.5055 C.ar    1  UNL1        0.1363
     24 C          66.8973   93.1431   12.0623 C.ar    1  UNL1        0.1650
     25 C          66.4300   94.3084   11.2415 C.ar    1  UNL1        0.0509
     26 N          66.0478   96.8554    8.2221 N.1     1  UNL1       -0.1908
     27 C          66.5151   95.6902    9.0430 C.1     1  UNL1        0.1021
@<TRIPOS>BOND
     1    26    27    3
     2    27    20    1
     3    20    21   ar
     4    21    22   ar
     5    22    23   ar
     6    23    24   ar
     7    24    19    1
     8    19     1    1
     9     1     2   ar
    10     2     3   ar
    11     3     4    1
    12     3     5   ar
    13     5     6   ar
    14     6     8    1
    15     8     9    2
    16     8    10   am
    17    10    12    1
    18    12    13   ar
    19    13    14   ar
    20    14    15   ar
    21    15    16    1
    22    15    17   ar
    23    17    18   ar
    24     6     7   ar
    25    24    25   ar
    26    25    20   ar
    27     7     1   ar
    28    18    12   ar
    29    10    11    1
@<TRIPOS>MOLECULE
*****
 27 29 0 0 0
SMALL
GASTEIGER

@<TRIPOS>ATOM
      1 C          64.0148   85.6383   15.1393 C.ar    1  UNL1        0.1464
      2 C          63.4492   85.6393   16.5286 C.ar    1  UNL1        0.0489
      3 C          63.1254   86.9381   17.2056 C.ar    1  UNL1        0.0609
      4 CL         62.5598   86.9391   18.5949 Cl      1  UNL1       -0.0821
      5 C          63.3670   88.2359   16.4933 C.ar    1  UNL1        0.0161
      6 C          63.9326   88.2348   15.1040 C.ar    1  UNL1        0.0576
      7 C          64.2564   86.9361   14.4270 C.ar    1  UNL1        0.0421
      8 C          64.1743   89.5326   14.3917 C.2     1  UNL1        0.2507
      9 O          63.1236   90.0952   13.4808 O.2     1  UNL1       -0.2698
     10 N          65.4667   90.2678   14.5902 N.am    1  UNL1       -0.2658
     11 H          66.1562   89.8985   15.1880 H       1  UNL1        0.1566
     12 C          65.7084   91.5655   13.8779 C.ar    1  UNL1        0.1345
     13 C          66.3968   92.6936   14.5874 C.ar    1  UNL1        0.0368
     14 C          66.6385   93.9914   13.8751 C.ar    1  UNL1        0.0341
     15 C          66.1918   94.1610   12.4532 C.ar    1  UNL1        0.1593
     16 F          66.4335   95.4588   11.7409 F       1  UNL1       -0.2025
     17 C          65.5033   93.0329   11.7437 C.ar    1  UNL1        0.1298
     18 N          65.2616   91.7352   12.4560 N.ar    1  UNL1       -0.2267
     19 O          64.3386   84.3396   14.4623 O.3     1  UNL1       -0.4519
     20 C          62.7300   84.8250   10.8669 C.ar    1  UNL1        0.0906
     21 C          63.5134   83.8255   10.0686 C.ar    1  UNL1        0.1093
     22 N          64.5719   82.9974   10.7348 N.ar    1  UNL1       -0.2384
     23 C          64.8469   83.1687   12.1994 C.ar    1  UNL1        0.1363
     24 C          64.0635   84.1682   12.9977 C.ar    1  UNL1        0.1650
     25 C          63.0051   84.9963   12.3315 C.ar    1  UNL1        0.0509
     26 N          60.6131   86.4812    9.5345 N.1     1  UNL1       -0.1908
     27 C          61.6715   85.6531   10.2007 C.1     1  UNL1        0.1021
@<TRIPOS>BOND
     1    26    27    3
     2    27    20    1
     3    20    21   ar
     4    21    22   ar
     5    22    23   ar
     6    23    24   ar
     7    24    19    1
     8    19     1    1
     9     1     2   ar
    10     2     3   ar
    11     3     4    1
    12     3     5   ar
    13     5     6   ar
    14     6     8    1
    15     8     9    2
    16     8    10   am
    17    10    12    1
    18    12    13   ar
    19    13    14   ar
    20    14    15   ar
    21    15    16    1
    22    15    17   ar
    23    17    18   ar
    24     6     7   ar
    25    24    25   ar
    26    25    20   ar
    27     7     1   ar
    28    18    12   ar
    29    10    11    1
@<TRIPOS>MOLECULE
*****
 27 29 0 0 0
SMALL
GASTEIGER

@<TRIPOS>ATOM
      1 C          65.2660   91.9381   13.8631 C.ar    1  UNL1        0.1464
      2 C          64.8621   91.5318   15.2494 C.ar    1  UNL1        0.0489
      3 C          63.8133   90.4776   15.4464 C.ar    1  UNL1        0.0609
      4 CL         63.4094   90.0713   16.8326 Cl      1  UNL1       -0.0821
      5 C          63.1685   89.8297   14.2571 C.ar    1  UNL1        0.0161
      6 C          63.5724   90.2360   12.8708 C.ar    1  UNL1        0.0576
      7 C          64.6212   91.2902   12.6738 C.ar    1  UNL1        0.0421
      8 C          62.9276   89.5882   11.6815 C.2     1  UNL1        0.2507
      9 O          62.8707   90.3149   10.3706 O.2     1  UNL1       -0.2698
     10 N          62.3397   88.2135   11.8032 N.am    1  UNL1       -0.2658
     11 H          62.3770   87.7365   12.6636 H       1  UNL1        0.1566
     12 C          61.6949   87.5656   10.6139 C.ar    1  UNL1        0.1345
     13 C          60.3069   87.9612   10.2051 C.ar    1  UNL1        0.0368
     14 C          59.6621   87.3133    9.0157 C.ar    1  UNL1        0.0341
     15 C          60.4052   86.2699    8.2352 C.ar    1  UNL1        0.1593
     16 F          59.7604   85.6221    7.0459 F       1  UNL1       -0.2025
     17 C          61.7932   85.8744    8.6441 C.ar    1  UNL1        0.1298
     18 N          62.4380   86.5223    9.8334 N.ar    1  UNL1       -0.2267
     19 O          66.3148   92.9923   13.6662 O.3     1  UNL1       -0.4519
     20 C          67.6288   93.2844    9.9328 C.ar    1  UNL1        0.0906
     21 C          67.1060   94.6381    9.5534 C.ar    1  UNL1        0.1093
     22 N          66.3194   95.4433   10.5449 N.ar    1  UNL1       -0.2384
     23 C          66.0557   94.8947   11.9158 C.ar    1  UNL1        0.1363
     24 C          66.5785   93.5409   12.2952 C.ar    1  UNL1        0.1650
     25 C          67.3651   92.7358   11.3037 C.ar    1  UNL1        0.0509
     26 N          69.2019   91.6742    7.9498 N.1     1  UNL1       -0.1908
     27 C          68.4154   92.4793    8.9413 C.1     1  UNL1        0.1021
@<TRIPOS>BOND
     1    26    27    3
     2    27    20    1
     3    20    21   ar
     4    21    22   ar
     5    22    23   ar
     6    23    24   ar
     7    24    19    1
     8    19     1    1
     9     1     2   ar
    10     2     3   ar
    11     3     4    1
    12     3     5   ar
    13     5     6   ar
    14     6     8    1
    15     8     9    2
    16     8    10   am
    17    10    12    1
    18    12    13   ar
    19    13    14   ar
    20    14    15   ar
    21    15    16    1
    22    15    17   ar
    23    17    18   ar
    24     6     7   ar
    25    24    25   ar
    26    25    20   ar
    27     7     1   ar
    28    18    12   ar
    29    10    11    1
@<TRIPOS>MOLECULE
*****
 27 29 0 0 0
SMALL
GASTEIGER

@<TRIPOS>ATOM
      1 C          61.6886   89.6229   10.1129 C.ar    1  UNL1        0.1464
      2 C          60.6402   89.6021    9.0404 C.ar    1  UNL1        0.0489
      3 C          60.1441   88.2929    8.5018 C.ar    1  UNL1        0.0609
      4 CL         59.0957   88.2721    7.4293 Cl      1  UNL1       -0.0821
      5 C          60.6966   87.0046    9.0357 C.ar    1  UNL1        0.0161
      6 C          61.7450   87.0254   10.1082 C.ar    1  UNL1        0.0576
      7 C          62.2411   88.3345   10.6468 C.ar    1  UNL1        0.0421
      8 C          62.2975   85.7371   10.6421 C.2     1  UNL1        0.2507
      9 O          63.0806   84.8270    9.7429 O.2     1  UNL1       -0.2698
     10 N          62.0668   85.3588   12.0752 N.am    1  UNL1       -0.2658
     11 H          61.5528   85.9561   12.6654 H       1  UNL1        0.1566
     12 C          62.6192   84.0705   12.6091 C.ar    1  UNL1        0.1345
     13 C          62.4090   82.7932   11.8514 C.ar    1  UNL1        0.0368
     14 C          62.9614   81.5048   12.3852 C.ar    1  UNL1        0.0341
     15 C          63.7241   81.4938   13.6768 C.ar    1  UNL1        0.1593
     16 F          64.2765   80.2055   14.2107 F       1  UNL1       -0.2025
     17 C          63.9344   82.7713   14.4345 C.ar    1  UNL1        0.1298
     18 N          63.3819   84.0595   13.9006 N.ar    1  UNL1       -0.2267
     19 O          62.1847   90.9319   10.6516 O.3     1  UNL1       -0.4519
     20 C          63.7828   90.2152   14.2128 C.ar    1  UNL1        0.0906
     21 C          65.0594   90.9965   14.1131 C.ar    1  UNL1        0.1093
     22 N          65.3777   91.7562   12.8595 N.ar    1  UNL1       -0.2384
     23 C          64.4195   91.7347   11.7057 C.ar    1  UNL1        0.1363
     24 C          63.1430   90.9535   11.8054 C.ar    1  UNL1        0.1650
     25 C          62.8246   90.1938   13.0590 C.ar    1  UNL1        0.0509
     26 N          63.1460   88.6958   16.7200 N.1     1  UNL1       -0.1908
     27 C          63.4644   89.4555   15.4664 C.1     1  UNL1        0.1021
@<TRIPOS>BOND
     1    26    27    3
     2    27    20    1
     3    20    21   ar
     4    21    22   ar
     5    22    23   ar
     6    23    24   ar
     7    24    19    1
     8    19     1    1
     9     1     2   ar
    10     2     3   ar
    11     3     4    1
    12     3     5   ar
    13     5     6   ar
    14     6     8    1
    15     8     9    2
    16     8    10   am
    17    10    12    1
    18    12    13   ar
    19    13    14   ar
    20    14    15   ar
    21    15    16    1
    22    15    17   ar
    23    17    18   ar
    24     6     7   ar
    25    24    25   ar
    26    25    20   ar
    27     7     1   ar
    28    18    12   ar
    29    10    11    1
@<TRIPOS>MOLECULE
*****
 27 29 0 0 0
SMALL
GASTEIGER

@<TRIPOS>ATOM
      1 C          63.8708   88.9781   15.4214 C.ar    1  UNL1        0.1464
      2 C          63.3811   88.7944   16.8273 C.ar    1  UNL1        0.0489
      3 C          63.0722   87.4191   17.3402 C.ar    1  UNL1        0.0609
      4 CL         62.5825   87.2354   18.7460 Cl      1  UNL1       -0.0821
      5 C          63.2531   86.2275   16.4473 C.ar    1  UNL1        0.0161
      6 C          63.7428   86.4112   15.0414 C.ar    1  UNL1        0.0576
      7 C          64.0517   87.7865   14.5285 C.ar    1  UNL1        0.0421
      8 C          63.9237   85.2196   14.1485 C.2     1  UNL1        0.2507
      9 O          65.2319   84.4859   14.1327 O.2     1  UNL1       -0.2698
     10 N          62.7963   84.7616   13.2713 N.am    1  UNL1       -0.2658
     11 H          61.9377   85.2432   13.2816 H       1  UNL1        0.1566
     12 C          62.9772   83.5700   12.3784 C.ar    1  UNL1        0.1345
     13 C          63.6545   83.7250   11.0490 C.ar    1  UNL1        0.0368
     14 C          63.8354   82.5333   10.1560 C.ar    1  UNL1        0.0341
     15 C          63.3390   81.1868   10.5925 C.ar    1  UNL1        0.1593
     16 F          63.5199   79.9952    9.6995 F       1  UNL1       -0.2025
     17 C          62.6617   81.0319   11.9219 C.ar    1  UNL1        0.1298
     18 N          62.4808   82.2235   12.8148 N.ar    1  UNL1       -0.2267
     19 O          64.1797   90.3534   14.9085 O.3     1  UNL1       -0.4519
     20 C          62.5740   90.4070   11.2796 C.ar    1  UNL1        0.0906
     21 C          63.5099   91.3394   10.5692 C.ar    1  UNL1        0.1093
     22 N          64.6690   91.9432   11.3053 N.ar    1  UNL1       -0.2384
     23 C          64.8923   91.6145   12.7517 C.ar    1  UNL1        0.1363
     24 C          63.9564   90.6821   13.4620 C.ar    1  UNL1        0.1650
     25 C          62.7972   90.0783   12.7260 C.ar    1  UNL1        0.0509
     26 N          60.2556   89.1994    9.8075 N.1     1  UNL1       -0.1908
     27 C          61.4148   89.8032   10.5435 C.1     1  UNL1        0.1021
@<TRIPOS>BOND
     1    26    27    3
     2    27    20    1
     3    20    21   ar
     4    21    22   ar
     5    22    23   ar
     6    23    24   ar
     7    24    19    1
     8    19     1    1
     9     1     2   ar
    10     2     3   ar
    11     3     4    1
    12     3     5   ar
    13     5     6   ar
    14     6     8    1
    15     8     9    2
    16     8    10   am
    17    10    12    1
    18    12    13   ar
    19    13    14   ar
    20    14    15   ar
    21    15    16    1
    22    15    17   ar
    23    17    18   ar
    24     6     7   ar
    25    24    25   ar
    26    25    20   ar
    27     7     1   ar
    28    18    12   ar
    29    10    11    1
