@<TRIPOS>MOLECULE
*****
 18 20 0 0 0
SMALL
GASTEIGER

@<TRIPOS>ATOM
      1 C          61.0386   87.3005    9.2252 C.3     1  UNL1        0.0347
      2 C          62.1843   87.6222   10.1383 C.3     1  UNL1        0.0054
      3 C          62.3924   89.0296   10.6134 C.3     1  UNL1        0.0004
      4 C          61.4547   90.1154   10.1754 C.3     1  UNL1        0.0001
      5 C          60.3090   89.7937    9.2622 C.3     1  UNL1        0.0017
      6 C          60.1010   88.3863    8.7871 C.3     1  UNL1        0.0208
      7 C          59.0679   87.7723    7.8895 C.3     1  UNL1        0.0689
      8 N          59.3670   86.3071    7.7727 N.3     1  UNL1       -0.2972
      9 C          60.5850   86.0155    8.5982 C.3     1  UNL1        0.0726
     10 H          59.5441   86.0666    6.7974 H       1  UNL1        0.1233
     11 CL         64.4419   82.5638   10.6325 Cl      1  UNL1       -0.0814
     12 C          63.5911   83.7480   10.2807 C.ar    1  UNL1        0.0682
     13 C          63.6513   84.3310    8.9000 C.ar    1  UNL1        0.0119
     14 C          62.8005   85.5152    8.5481 C.ar    1  UNL1       -0.0033
     15 C          61.8895   86.1163    9.5770 C.ar    1  UNL1       -0.0206
     16 C          61.8293   85.5332   10.9577 C.ar    1  UNL1        0.0080
     17 C          62.6800   84.3491   11.3096 C.ar    1  UNL1        0.0679
     18 CL         62.6198   83.7661   12.6903 Cl      1  UNL1       -0.0814
@<TRIPOS>BOND
     1    11    12    1
     2    12    13   ar
     3    13    14   ar
     4    14    15   ar
     5     1    15    1
     6     1     2    1
     7     2     3    1
     8     3     4    1
     9     4     5    1
    10     6     5    1
    11     6     7    1
    12     7     8    1
    13     8     9    1
    14    15    16   ar
    15    16    17   ar
    16    17    18    1
    17    17    12   ar
    18     6     1    1
    19     9     1    1
    20     8    10    1
@<TRIPOS>MOLECULE
*****
 18 20 0 0 0
SMALL
GASTEIGER

@<TRIPOS>ATOM
      1 C          61.3537   87.4273    9.4278 C.3     1  UNL1        0.0347
      2 C          60.8466   86.1939    8.7413 C.3     1  UNL1        0.0054
      3 C          59.7101   86.2913    7.7672 C.3     1  UNL1        0.0004
      4 C          59.0807   87.6221    7.4797 C.3     1  UNL1        0.0001
      5 C          59.5879   88.8556    8.1661 C.3     1  UNL1        0.0017
      6 C          60.7244   88.7582    9.1402 C.3     1  UNL1        0.0208
      7 C          61.4324   89.7933    9.9632 C.3     1  UNL1        0.0689
      8 N          62.4994   89.1021   10.7594 N.3     1  UNL1       -0.2972
      9 C          62.4507   87.6399   10.4285 C.3     1  UNL1        0.0726
     10 H          62.3298   89.2373   11.7561 H       1  UNL1        0.1233
     11 CL         64.2541   82.4073   10.9727 Cl      1  UNL1       -0.0814
     12 C          63.5290   83.6623   10.5865 C.ar    1  UNL1        0.0682
     13 C          63.6446   84.1954    9.1893 C.ar    1  UNL1        0.0119
     14 C          62.9195   85.4505    8.8030 C.ar    1  UNL1       -0.0033
     15 C          62.0788   86.1723    9.8140 C.ar    1  UNL1       -0.0206
     16 C          61.9632   85.6391   11.2113 C.ar    1  UNL1        0.0080
     17 C          62.6883   84.3841   11.5975 C.ar    1  UNL1        0.0679
     18 CL         62.5727   83.8509   12.9947 Cl      1  UNL1       -0.0814
@<TRIPOS>BOND
     1    11    12    1
     2    12    13   ar
     3    13    14   ar
     4    14    15   ar
     5     1    15    1
     6     1     2    1
     7     2     3    1
     8     3     4    1
     9     4     5    1
    10     6     5    1
    11     6     7    1
    12     7     8    1
    13     8     9    1
    14    15    16   ar
    15    16    17   ar
    16    17    18    1
    17    17    12   ar
    18     6     1    1
    19     9     1    1
    20     8    10    1
@<TRIPOS>MOLECULE
*****
 18 20 0 0 0
SMALL
GASTEIGER

@<TRIPOS>ATOM
      1 C          66.7370   93.6944   10.9725 C.3     1  UNL1        0.0347
      2 C          67.1261   92.2626   10.7527 C.3     1  UNL1        0.0054
      3 C          68.0179   91.8956    9.6039 C.3     1  UNL1        0.0004
      4 C          68.5206   92.9605    8.6747 C.3     1  UNL1        0.0001
      5 C          68.1315   94.3924    8.8945 C.3     1  UNL1        0.0017
      6 C          67.2397   94.7593   10.0433 C.3     1  UNL1        0.0208
      7 C          66.6916   96.0761   10.5078 C.3     1  UNL1        0.0689
      8 N          65.8502   95.8251   11.7239 N.3     1  UNL1       -0.2972
      9 C          65.8783   94.3531   12.0111 C.3     1  UNL1        0.0726
     10 H          64.8912   96.1255   11.5494 H       1  UNL1        0.1233
     11 CL         64.4280   89.8924   14.9991 Cl      1  UNL1       -0.0814
     12 C          65.0053   90.8429   13.9924 C.ar    1  UNL1        0.0682
     13 C          66.3191   91.5145   14.2624 C.ar    1  UNL1        0.0119
     14 C          66.8963   92.4650   13.2557 C.ar    1  UNL1       -0.0033
     15 C          66.1597   92.7439   11.9791 C.ar    1  UNL1       -0.0206
     16 C          64.8459   92.0723   11.7092 C.ar    1  UNL1        0.0080
     17 C          64.2687   91.1219   12.7158 C.ar    1  UNL1        0.0679
     18 CL         62.9549   90.4503   12.4459 Cl      1  UNL1       -0.0814
@<TRIPOS>BOND
     1    11    12    1
     2    12    13   ar
     3    13    14   ar
     4    14    15   ar
     5     1    15    1
     6     1     2    1
     7     2     3    1
     8     3     4    1
     9     4     5    1
    10     6     5    1
    11     6     7    1
    12     7     8    1
    13     8     9    1
    14    15    16   ar
    15    16    17   ar
    16    17    18    1
    17    17    12   ar
    18     6     1    1
    19     9     1    1
    20     8    10    1
@<TRIPOS>MOLECULE
*****
 18 20 0 0 0
SMALL
GASTEIGER

@<TRIPOS>ATOM
      1 C          64.3667   90.6728   13.4749 C.3     1  UNL1        0.0347
      2 C          65.3744   90.5792   14.5821 C.3     1  UNL1        0.0054
      3 C          66.6026   91.4397   14.5530 C.3     1  UNL1        0.0004
      4 C          66.8231   92.3939   13.4168 C.3     1  UNL1        0.0001
      5 C          65.8154   92.4875   12.3097 C.3     1  UNL1        0.0017
      6 C          64.5872   91.6269   12.3387 C.3     1  UNL1        0.0208
      7 C          63.4276   91.5006   11.3957 C.3     1  UNL1        0.0689
      8 N          62.4904   90.4684   11.9490 N.3     1  UNL1       -0.2972
      9 C          63.0708   89.9568   13.2340 C.3     1  UNL1        0.0726
     10 H          62.3896   89.7009   11.2848 H       1  UNL1        0.1233
     11 CL         62.9497   86.6919   17.7345 Cl      1  UNL1       -0.0814
     12 C          63.3039   87.6871   16.6696 C.ar    1  UNL1        0.0682
     13 C          62.9786   89.1387   16.8617 C.ar    1  UNL1        0.0119
     14 C          63.3328   90.1339   15.7967 C.ar    1  UNL1       -0.0033
     15 C          64.0124   89.6775   14.5398 C.ar    1  UNL1       -0.0206
     16 C          64.3378   88.2259   14.3479 C.ar    1  UNL1        0.0080
     17 C          63.9835   87.2307   15.4127 C.ar    1  UNL1        0.0679
     18 CL         64.3089   85.7791   15.2207 Cl      1  UNL1       -0.0814
@<TRIPOS>BOND
     1    11    12    1
     2    12    13   ar
     3    13    14   ar
     4    14    15   ar
     5     1    15    1
     6     1     2    1
     7     2     3    1
     8     3     4    1
     9     4     5    1
    10     6     5    1
    11     6     7    1
    12     7     8    1
    13     8     9    1
    14    15    16   ar
    15    16    17   ar
    16    17    18    1
    17    17    12   ar
    18     6     1    1
    19     9     1    1
    20     8    10    1
@<TRIPOS>MOLECULE
*****
 18 20 0 0 0
SMALL
GASTEIGER

@<TRIPOS>ATOM
      1 C          65.8169   92.3595   13.1800 C.3     1  UNL1        0.0347
      2 C          65.0382   92.0529   11.9352 C.3     1  UNL1        0.0054
      3 C          63.8911   91.0878   11.9867 C.3     1  UNL1        0.0004
      4 C          63.5227   90.4292   13.2831 C.3     1  UNL1        0.0001
      5 C          64.3014   90.7358   14.5279 C.3     1  UNL1        0.0017
      6 C          65.4485   91.7009   14.4764 C.3     1  UNL1        0.0208
      7 C          66.3920   92.1958   15.5322 C.3     1  UNL1        0.0689
      8 N          67.3436   93.1601   14.8885 N.3     1  UNL1       -0.2972
      9 C          66.9881   93.2613   13.4347 C.3     1  UNL1        0.0726
     10 H          68.3004   92.8209   14.9880 H       1  UNL1        0.1233
     11 CL         67.7473   95.2863    8.3111 Cl      1  UNL1       -0.0814
     12 C          67.2647   94.5546    9.5283 C.ar    1  UNL1        0.0682
     13 C          66.3916   95.2546   10.5271 C.ar    1  UNL1        0.0119
     14 C          65.9090   94.5229   11.7444 C.ar    1  UNL1       -0.0033
     15 C          66.2995   93.0912   11.9628 C.ar    1  UNL1       -0.0206
     16 C          67.1726   92.3912   10.9639 C.ar    1  UNL1        0.0080
     17 C          67.6551   93.1229    9.7467 C.ar    1  UNL1        0.0679
     18 CL         68.5282   92.4229    8.7479 Cl      1  UNL1       -0.0814
@<TRIPOS>BOND
     1    11    12    1
     2    12    13   ar
     3    13    14   ar
     4    14    15   ar
     5     1    15    1
     6     1     2    1
     7     2     3    1
     8     3     4    1
     9     4     5    1
    10     6     5    1
    11     6     7    1
    12     7     8    1
    13     8     9    1
    14    15    16   ar
    15    16    17   ar
    16    17    18    1
    17    17    12   ar
    18     6     1    1
    19     9     1    1
    20     8    10    1
@<TRIPOS>MOLECULE
*****
 18 20 0 0 0
SMALL
GASTEIGER

@<TRIPOS>ATOM
      1 C          63.1272   83.0765   13.0151 C.3     1  UNL1        0.0347
      2 C          63.8691   83.8261   11.9485 C.3     1  UNL1        0.0054
      3 C          64.1921   83.1547   10.6467 C.3     1  UNL1        0.0004
      4 C          63.7733   81.7337   10.4115 C.3     1  UNL1        0.0001
      5 C          63.0314   80.9841   11.4781 C.3     1  UNL1        0.0017
      6 C          62.7084   81.6555   12.7799 C.3     1  UNL1        0.0208
      7 C          61.9943   81.1735   14.0078 C.3     1  UNL1        0.0689
      8 N          61.9717   82.2965   15.0019 N.3     1  UNL1       -0.2972
      9 C          62.6719   83.4727   14.3884 C.3     1  UNL1        0.0726
     10 H          62.4536   82.0133   15.8551 H       1  UNL1        0.1233
     11 CL         64.5362   88.7105   14.5227 Cl      1  UNL1       -0.0814
     12 C          64.1840   87.3020   14.1458 C.ar    1  UNL1        0.0682
     13 C          64.6411   86.1595   15.0035 C.ar    1  UNL1        0.0119
     14 C          64.2888   84.7510   14.6266 C.ar    1  UNL1       -0.0033
     15 C          63.4795   84.4850   13.3920 C.ar    1  UNL1       -0.0206
     16 C          63.0224   85.6276   12.5343 C.ar    1  UNL1        0.0080
     17 C          63.3746   87.0360   12.9112 C.ar    1  UNL1        0.0679
     18 CL         62.9175   88.1786   12.0535 Cl      1  UNL1       -0.0814
@<TRIPOS>BOND
     1    11    12    1
     2    12    13   ar
     3    13    14   ar
     4    14    15   ar
     5     1    15    1
     6     1     2    1
     7     2     3    1
     8     3     4    1
     9     4     5    1
    10     6     5    1
    11     6     7    1
    12     7     8    1
    13     8     9    1
    14    15    16   ar
    15    16    17   ar
    16    17    18    1
    17    17    12   ar
    18     6     1    1
    19     9     1    1
    20     8    10    1
@<TRIPOS>MOLECULE
*****
 18 20 0 0 0
SMALL
GASTEIGER

@<TRIPOS>ATOM
      1 C          63.5622   85.5743   13.2171 C.3     1  UNL1        0.0347
      2 C          62.7612   85.3160   11.9755 C.3     1  UNL1        0.0054
      3 C          62.2669   86.4661   11.1492 C.3     1  UNL1        0.0004
      4 C          62.5735   87.8744   11.5645 C.3     1  UNL1        0.0001
      5 C          63.3745   88.1327   12.8061 C.3     1  UNL1        0.0017
      6 C          63.8689   86.9826   13.6324 C.3     1  UNL1        0.0208
      7 C          64.6749   86.9281   14.8963 C.3     1  UNL1        0.0689
      8 N          64.8665   85.4861   15.2621 N.3     1  UNL1       -0.2972
      9 C          64.1788   84.6494   14.2244 C.3     1  UNL1        0.0726
     10 H          64.4585   85.3045   16.1792 H       1  UNL1        0.1233
     11 CL         62.6551   79.7564   12.0644 Cl      1  UNL1       -0.0814
     12 C          62.8819   81.2109   12.3526 C.ar    1  UNL1        0.0682
     13 C          63.8741   81.9903   11.5415 C.ar    1  UNL1        0.0119
     14 C          64.1009   83.4448   11.8297 C.ar    1  UNL1       -0.0033
     15 C          63.3354   84.1198   12.9289 C.ar    1  UNL1       -0.0206
     16 C          62.3432   83.3403   13.7400 C.ar    1  UNL1        0.0080
     17 C          62.1164   81.8859   13.4518 C.ar    1  UNL1        0.0679
     18 CL         61.1241   81.1064   14.2629 Cl      1  UNL1       -0.0814
@<TRIPOS>BOND
     1    11    12    1
     2    12    13   ar
     3    13    14   ar
     4    14    15   ar
     5     1    15    1
     6     1     2    1
     7     2     3    1
     8     3     4    1
     9     4     5    1
    10     6     5    1
    11     6     7    1
    12     7     8    1
    13     8     9    1
    14    15    16   ar
    15    16    17   ar
    16    17    18    1
    17    17    12   ar
    18     6     1    1
    19     9     1    1
    20     8    10    1
@<TRIPOS>MOLECULE
*****
 18 20 0 0 0
SMALL
GASTEIGER

@<TRIPOS>ATOM
      1 C          61.2836   86.5786    9.0373 C.3     1  UNL1        0.0347
      2 C          62.6871   86.0746    9.1983 C.3     1  UNL1        0.0054
      3 C          63.2632   85.1251    8.1900 C.3     1  UNL1        0.0004
      4 C          62.4358   84.6797    7.0209 C.3     1  UNL1        0.0001
      5 C          61.0323   85.1837    6.8599 C.3     1  UNL1        0.0017
      6 C          60.4561   86.1332    7.8682 C.3     1  UNL1        0.0208
      7 C          59.1134   86.7937    7.9721 C.3     1  UNL1        0.0689
      8 N          59.1109   87.6473    9.2055 N.3     1  UNL1       -0.2972
      9 C          60.4522   87.5144    9.8639 C.3     1  UNL1        0.0726
     10 H          58.3797   87.3323    9.8431 H       1  UNL1        0.1233
     11 CL         64.0972   88.7015   13.8929 Cl      1  UNL1       -0.0814
     12 C          63.3938   88.1707   12.6790 C.ar    1  UNL1        0.0682
     13 C          62.9337   89.1134   11.6068 C.ar    1  UNL1        0.0119
     14 C          62.2302   88.5827   10.3929 C.ar    1  UNL1       -0.0033
     15 C          61.9870   87.1093   10.2512 C.ar    1  UNL1       -0.0206
     16 C          62.4471   86.1667   11.3235 C.ar    1  UNL1        0.0080
     17 C          63.1505   86.6974   12.5373 C.ar    1  UNL1        0.0679
     18 CL         63.6106   85.7548   13.6096 Cl      1  UNL1       -0.0814
@<TRIPOS>BOND
     1    11    12    1
     2    12    13   ar
     3    13    14   ar
     4    14    15   ar
     5     1    15    1
     6     1     2    1
     7     2     3    1
     8     3     4    1
     9     4     5    1
    10     6     5    1
    11     6     7    1
    12     7     8    1
    13     8     9    1
    14    15    16   ar
    15    16    17   ar
    16    17    18    1
    17    17    12   ar
    18     6     1    1
    19     9     1    1
    20     8    10    1
@<TRIPOS>MOLECULE
*****
 18 20 0 0 0
SMALL
GASTEIGER

@<TRIPOS>ATOM
      1 C          63.3481   82.9822   12.5253 C.3     1  UNL1        0.0347
      2 C          62.7161   83.2720   13.8544 C.3     1  UNL1        0.0054
      3 C          61.9039   82.2166   14.5447 C.3     1  UNL1        0.0004
      4 C          61.7236   80.8715   13.9057 C.3     1  UNL1        0.0001
      5 C          62.3555   80.5818   12.5766 C.3     1  UNL1        0.0017
      6 C          63.1678   81.6371   11.8864 C.3     1  UNL1        0.0208
      7 C          63.9051   81.6419   10.5801 C.3     1  UNL1        0.0689
      8 N          64.5411   82.9899   10.4117 N.3     1  UNL1       -0.2972
      9 C          64.1969   83.8182   11.6139 C.3     1  UNL1        0.0726
     10 H          64.1835   83.4384    9.5683 H       1  UNL1        0.1233
     11 CL         64.4140   88.5179   14.5794 Cl      1  UNL1       -0.0814
     12 C          64.1475   87.1340   14.0659 C.ar    1  UNL1        0.0682
     13 C          64.6790   85.9436   14.8077 C.ar    1  UNL1        0.0119
     14 C          64.4125   84.5596   14.2942 C.ar    1  UNL1       -0.0033
     15 C          63.6146   84.3662   13.0389 C.ar    1  UNL1       -0.0206
     16 C          63.0831   85.5567   12.2971 C.ar    1  UNL1        0.0080
     17 C          63.3496   86.9405   12.8106 C.ar    1  UNL1        0.0679
     18 CL         62.8182   88.1310   12.0688 Cl      1  UNL1       -0.0814
@<TRIPOS>BOND
     1    11    12    1
     2    12    13   ar
     3    13    14   ar
     4    14    15   ar
     5     1    15    1
     6     1     2    1
     7     2     3    1
     8     3     4    1
     9     4     5    1
    10     6     5    1
    11     6     7    1
    12     7     8    1
    13     8     9    1
    14    15    16   ar
    15    16    17   ar
    16    17    18    1
    17    17    12   ar
    18     6     1    1
    19     9     1    1
    20     8    10    1
