@<TRIPOS>MOLECULE
*****
 31 35 0 0 0
SMALL
GASTEIGER

@<TRIPOS>ATOM
      1 C          65.3609   91.5318   12.9733 C.ar    1  UNL1        0.0849
      2 C          65.0939   90.7535   14.2275 C.ar    1  UNL1        0.0374
      3 C          63.8758   89.9088   13.9982 C.ar    1  UNL1        0.1016
      4 N          63.3899   90.1650   12.6024 N.ar    1  UNL1       -0.2285
      5 N          64.3078   91.1681   11.9690 N.ar    1  UNL1       -0.1691
      6 C          62.1958   89.5296   11.9538 C.ar    1  UNL1        0.0828
      7 C          60.8128   89.9161   12.3869 C.ar    1  UNL1        0.0191
      8 C          59.6187   89.2809   11.7383 C.ar    1  UNL1        0.0015
      9 C          59.8079   88.2589   10.6566 C.ar    1  UNL1        0.0001
     10 C          61.1910   87.8724   10.2236 C.ar    1  UNL1        0.0015
     11 C          62.3850   88.5078   10.8722 C.ar    1  UNL1        0.0191
     12 C          61.3802   86.8506    9.1419 C.ar    1  UNL1        0.0000
     13 C          62.7040   86.1633    8.9827 C.ar    1  UNL1        0.0000
     14 C          62.8931   85.1414    7.9011 C.ar    1  UNL1        0.0000
     15 C          61.7586   84.8068    6.9786 C.ar    1  UNL1        0.0000
     16 C          60.4349   85.4941    7.1378 C.ar    1  UNL1        0.0000
     17 C          60.2457   86.5160    8.2195 C.ar    1  UNL1        0.0000
     18 C          66.4838   92.5033   12.7607 C.3     1  UNL1        0.0757
     19 N          64.8227   96.8556   10.4587 N.pl3   1  UNL1       -0.3441
     20 C          65.6371   95.5964   10.4228 C.ar    1  UNL1        0.1035
     21 C          65.6533   94.6795   11.6097 C.ar    1  UNL1        0.0297
     22 C          66.4677   93.4203   11.5737 C.ar    1  UNL1        0.0090
     23 C          67.2659   93.0781   10.3507 C.ar    1  UNL1        0.1366
     24 N          68.1564   91.9155   10.0262 N.ar    1  UNL1       -0.1258
     25 N          68.6906   92.1139    8.6387 N.ar    1  UNL1       -0.0406
     26 N          68.1302   93.3992    8.1056 N.ar    1  UNL1       -0.1095
     27 C          67.2497   93.9951    9.1637 C.ar    1  UNL1        0.1838
     28 N          66.4353   95.2542    9.1998 N.ar    1  UNL1       -0.3249
     29 H          64.2987   97.0802   11.2614 H       1  UNL1        0.1437
     30 H          64.8121   97.4574    9.6797 H       1  UNL1        0.1437
     31 H          66.4247   95.8561    8.4207 H       1  UNL1        0.1686
@<TRIPOS>BOND
     1    19    20    1
     2    20    21   ar
     3    21    22   ar
     4    22    18    1
     5    18     1    1
     6     1     2   ar
     7     2     3   ar
     8     3     4   ar
     9     4     6    1
    10     6     7   ar
    11     7     8   ar
    12     8     9   ar
    13     9    10   ar
    14    10    12    1
    15    12    13   ar
    16    13    14   ar
    17    14    15   ar
    18    15    16   ar
    19    16    17   ar
    20    10    11   ar
    21     4     5   ar
    22    22    23   ar
    23    23    24   ar
    24    24    25   ar
    25    25    26   ar
    26    26    27   ar
    27    27    28   ar
    28    28    20   ar
    29     5     1   ar
    30    27    23    1
    31    11     6   ar
    32    17    12   ar
    33    19    29    1
    34    19    30    1
    35    28    31    1
@<TRIPOS>MOLECULE
*****
 31 35 0 0 0
SMALL
GASTEIGER

@<TRIPOS>ATOM
      1 C          62.2724   87.8532   11.4151 C.ar    1  UNL1        0.0849
      2 C          61.8982   88.7448   10.2683 C.ar    1  UNL1        0.0374
      3 C          62.6317   90.0429   10.4320 C.ar    1  UNL1        0.1016
      4 N          63.4592   89.9537   11.6799 N.ar    1  UNL1       -0.2285
      5 N          63.2371   88.6003   12.2875 N.ar    1  UNL1       -0.1691
      6 C          64.3521   91.0289   12.2247 C.ar    1  UNL1        0.0828
      7 C          64.7189   91.0338   13.6790 C.ar    1  UNL1        0.0191
      8 C          65.6118   92.1089   14.2239 C.ar    1  UNL1        0.0015
      9 C          66.1378   93.1794   13.3141 C.ar    1  UNL1        0.0001
     10 C          65.7709   93.1745   11.8596 C.ar    1  UNL1        0.0015
     11 C          64.8780   92.0993   11.3149 C.ar    1  UNL1        0.0191
     12 C          66.2968   94.2449   10.9499 C.ar    1  UNL1        0.0000
     13 C          66.9984   93.8701    9.6780 C.ar    1  UNL1        0.0000
     14 C          67.5244   94.9405    8.7683 C.ar    1  UNL1        0.0000
     15 C          67.3488   96.3856    9.1302 C.ar    1  UNL1        0.0000
     16 C          66.6473   96.7602   10.4020 C.ar    1  UNL1        0.0000
     17 C          66.1213   95.6898   11.3118 C.ar    1  UNL1        0.0000
     18 C          61.7700   86.4593   11.6485 C.3     1  UNL1        0.0757
     19 N          64.1849   82.1567   10.0186 N.pl3   1  UNL1       -0.3441
     20 C          63.9491   83.1918   11.0784 C.ar    1  UNL1        0.1035
     21 C          62.9775   84.3080   10.8336 C.ar    1  UNL1        0.0297
     22 C          62.7417   85.3431   11.8934 C.ar    1  UNL1        0.0090
     23 C          63.4775   85.2618   13.1980 C.ar    1  UNL1        0.1366
     24 N          63.4518   86.1305   14.4205 N.ar    1  UNL1       -0.1258
     25 N          64.4075   85.5511   15.4210 N.ar    1  UNL1       -0.0406
     26 N          65.0239   84.3243   14.8167 N.ar    1  UNL1       -0.1095
     27 C          64.4491   84.1455   13.4428 C.ar    1  UNL1        0.1838
     28 N          64.6849   83.1105   12.3830 N.ar    1  UNL1       -0.3249
     29 H          63.7020   82.2100    9.1624 H       1  UNL1        0.1437
     30 H          64.8226   81.4241   10.1794 H       1  UNL1        0.1437
     31 H          65.3226   82.3779   12.5437 H       1  UNL1        0.1686
@<TRIPOS>BOND
     1    19    20    1
     2    20    21   ar
     3    21    22   ar
     4    22    18    1
     5    18     1    1
     6     1     2   ar
     7     2     3   ar
     8     3     4   ar
     9     4     6    1
    10     6     7   ar
    11     7     8   ar
    12     8     9   ar
    13     9    10   ar
    14    10    12    1
    15    12    13   ar
    16    13    14   ar
    17    14    15   ar
    18    15    16   ar
    19    16    17   ar
    20    10    11   ar
    21     4     5   ar
    22    22    23   ar
    23    23    24   ar
    24    24    25   ar
    25    25    26   ar
    26    26    27   ar
    27    27    28   ar
    28    28    20   ar
    29     5     1   ar
    30    27    23    1
    31    11     6   ar
    32    17    12   ar
    33    19    29    1
    34    19    30    1
    35    28    31    1
@<TRIPOS>MOLECULE
*****
 31 35 0 0 0
SMALL
GASTEIGER

@<TRIPOS>ATOM
      1 C          63.0123   89.7678   11.6009 C.ar    1  UNL1        0.0849
      2 C          62.2566   88.9132   10.6270 C.ar    1  UNL1        0.0374
      3 C          62.3367   87.4916   11.0985 C.ar    1  UNL1        0.1016
      4 N          63.1419   87.4675   12.3638 N.ar    1  UNL1       -0.2285
      5 N          63.5595   88.8743   12.6743 N.ar    1  UNL1       -0.1691
      6 C          63.4717   86.2503   13.1761 C.ar    1  UNL1        0.0828
      7 C          64.1193   86.3989   14.5208 C.ar    1  UNL1        0.0191
      8 C          64.4491   85.1818   15.3332 C.ar    1  UNL1        0.0015
      9 C          64.1312   83.8159   14.8006 C.ar    1  UNL1        0.0001
     10 C          63.4835   83.6674   13.4558 C.ar    1  UNL1        0.0015
     11 C          63.1538   84.8845   12.6436 C.ar    1  UNL1        0.0191
     12 C          63.1656   82.3016   12.9232 C.ar    1  UNL1        0.0000
     13 C          62.6498   81.2379   13.8467 C.ar    1  UNL1        0.0000
     14 C          62.3319   79.8722   13.3141 C.ar    1  UNL1        0.0000
     15 C          62.5297   79.5700   11.8582 C.ar    1  UNL1        0.0000
     16 C          63.0454   80.6337   10.9348 C.ar    1  UNL1        0.0000
     17 C          63.3634   81.9996   11.4674 C.ar    1  UNL1        0.0000
     18 C          63.1898   91.2549   11.5163 C.3     1  UNL1        0.0757
     19 N          67.6598   93.4475   10.0290 N.pl3   1  UNL1       -0.3441
     20 C          66.7467   92.9697   11.1190 C.ar    1  UNL1        0.1035
     21 C          65.4249   92.3512   10.7727 C.ar    1  UNL1        0.0297
     22 C          64.5118   91.8734   11.8627 C.ar    1  UNL1        0.0090
     23 C          64.9207   92.0141   13.2990 C.ar    1  UNL1        0.1366
     24 N          64.2353   91.6378   14.5791 N.ar    1  UNL1       -0.1258
     25 N          65.1337   92.0238   15.7166 N.ar    1  UNL1       -0.0406
     26 N          66.3743   92.6386   15.1395 N.ar    1  UNL1       -0.1095
     27 C          66.2426   92.6326   13.6453 C.ar    1  UNL1        0.1838
     28 N          67.1556   93.1104   12.5553 N.ar    1  UNL1       -0.3249
     29 H          67.3915   93.3552    9.0863 H       1  UNL1        0.1437
     30 H          68.5275   93.8535   10.2563 H       1  UNL1        0.1437
     31 H          68.0233   93.5163   12.7826 H       1  UNL1        0.1686
@<TRIPOS>BOND
     1    19    20    1
     2    20    21   ar
     3    21    22   ar
     4    22    18    1
     5    18     1    1
     6     1     2   ar
     7     2     3   ar
     8     3     4   ar
     9     4     6    1
    10     6     7   ar
    11     7     8   ar
    12     8     9   ar
    13     9    10   ar
    14    10    12    1
    15    12    13   ar
    16    13    14   ar
    17    14    15   ar
    18    15    16   ar
    19    16    17   ar
    20    10    11   ar
    21     4     5   ar
    22    22    23   ar
    23    23    24   ar
    24    24    25   ar
    25    25    26   ar
    26    26    27   ar
    27    27    28   ar
    28    28    20   ar
    29     5     1   ar
    30    27    23    1
    31    11     6   ar
    32    17    12   ar
    33    19    29    1
    34    19    30    1
    35    28    31    1
@<TRIPOS>MOLECULE
*****
 31 35 0 0 0
SMALL
GASTEIGER

@<TRIPOS>ATOM
      1 C          62.7698   90.0873   12.4753 C.ar    1  UNL1        0.0849
      2 C          61.6072   90.3125   11.5546 C.ar    1  UNL1        0.0374
      3 C          61.3972   89.0591   10.7579 C.ar    1  UNL1        0.1016
      4 N          62.4300   88.0591   11.1861 N.ar    1  UNL1       -0.2285
      5 N          63.2783   88.6946   12.2475 N.ar    1  UNL1       -0.1691
      6 C          62.5870   86.6679   10.6476 C.ar    1  UNL1        0.0828
      7 C          62.7746   86.4503    9.1754 C.ar    1  UNL1        0.0191
      8 C          62.9316   85.0592    8.6368 C.ar    1  UNL1        0.0015
      9 C          62.9010   83.8856    9.5706 C.ar    1  UNL1        0.0001
     10 C          62.7134   84.1032   11.0428 C.ar    1  UNL1        0.0015
     11 C          62.5564   85.4944   11.5813 C.ar    1  UNL1        0.0191
     12 C          62.6828   82.9297   11.9765 C.ar    1  UNL1        0.0000
     13 C          62.8144   81.5370   11.4352 C.ar    1  UNL1        0.0000
     14 C          62.7838   80.3634   12.3689 C.ar    1  UNL1        0.0000
     15 C          62.6217   80.5825   13.8440 C.ar    1  UNL1        0.0000
     16 C          62.4901   81.9753   14.3853 C.ar    1  UNL1        0.0000
     17 C          62.5207   83.1489   13.4515 C.ar    1  UNL1        0.0000
     18 C          63.3262   91.0803   13.4521 C.3     1  UNL1        0.0757
     19 N          66.7174   92.9768   10.0020 N.pl3   1  UNL1       -0.3441
     20 C          66.3091   92.7369   11.4253 C.ar    1  UNL1        0.1035
     21 C          65.0219   92.0286   11.7271 C.ar    1  UNL1        0.0297
     22 C          64.6135   91.7887   13.1504 C.ar    1  UNL1        0.0090
     23 C          65.4925   92.2573   14.2719 C.ar    1  UNL1        0.1366
     24 N          65.3532   92.1639   15.7625 N.ar    1  UNL1       -0.1258
     25 N          66.5544   92.8147   16.3819 N.ar    1  UNL1       -0.0406
     26 N          67.4361   93.3102   15.2742 N.ar    1  UNL1       -0.1095
     27 C          66.7798   92.9657   13.9701 C.ar    1  UNL1        0.1838
     28 N          67.1881   93.2055   12.5468 N.ar    1  UNL1       -0.3249
     29 H          66.1405   92.6693    9.2658 H       1  UNL1        0.1437
     30 H          67.5623   93.4417    9.8039 H       1  UNL1        0.1437
     31 H          68.0330   93.6704   12.3487 H       1  UNL1        0.1686
@<TRIPOS>BOND
     1    19    20    1
     2    20    21   ar
     3    21    22   ar
     4    22    18    1
     5    18     1    1
     6     1     2   ar
     7     2     3   ar
     8     3     4   ar
     9     4     6    1
    10     6     7   ar
    11     7     8   ar
    12     8     9   ar
    13     9    10   ar
    14    10    12    1
    15    12    13   ar
    16    13    14   ar
    17    14    15   ar
    18    15    16   ar
    19    16    17   ar
    20    10    11   ar
    21     4     5   ar
    22    22    23   ar
    23    23    24   ar
    24    24    25   ar
    25    25    26   ar
    26    26    27   ar
    27    27    28   ar
    28    28    20   ar
    29     5     1   ar
    30    27    23    1
    31    11     6   ar
    32    17    12   ar
    33    19    29    1
    34    19    30    1
    35    28    31    1
@<TRIPOS>MOLECULE
*****
 31 35 0 0 0
SMALL
GASTEIGER

@<TRIPOS>ATOM
      1 C          62.9507   90.1900   12.5708 C.ar    1  UNL1        0.0849
      2 C          61.8735   90.5170   11.5796 C.ar    1  UNL1        0.0374
      3 C          61.6183   89.2927   10.7515 C.ar    1  UNL1        0.1016
      4 N          62.5378   88.2089   11.2309 N.ar    1  UNL1       -0.2285
      5 N          63.3613   88.7635   12.3554 N.ar    1  UNL1       -0.1691
      6 C          62.6196   86.8151   10.6823 C.ar    1  UNL1        0.0828
      7 C          62.7011   86.5959    9.2008 C.ar    1  UNL1        0.0191
      8 C          62.7829   85.2022    8.6521 C.ar    1  UNL1        0.0015
      9 C          62.7831   84.0277    9.5853 C.ar    1  UNL1        0.0001
     10 C          62.7015   84.2470   11.0669 C.ar    1  UNL1        0.0015
     11 C          62.6197   85.6407   11.6154 C.ar    1  UNL1        0.0191
     12 C          62.7017   83.0726   12.0000 C.ar    1  UNL1        0.0000
     13 C          62.5420   83.2875   13.4760 C.ar    1  UNL1        0.0000
     14 C          62.5422   82.1130   14.4091 C.ar    1  UNL1        0.0000
     15 C          62.7021   80.7238   13.8664 C.ar    1  UNL1        0.0000
     16 C          62.8617   80.5090   12.3905 C.ar    1  UNL1        0.0000
     17 C          62.8615   81.6835   11.4573 C.ar    1  UNL1        0.0000
     18 C          63.5178   91.1252   13.5973 C.3     1  UNL1        0.0757
     19 N          68.2512   91.4953   15.7090 N.pl3   1  UNL1       -0.3441
     20 C          67.3173   91.7445   14.5619 C.ar    1  UNL1        0.1035
     21 C          65.8845   91.3103   14.6531 C.ar    1  UNL1        0.0297
     22 C          64.9507   91.5595   13.5060 C.ar    1  UNL1        0.0090
     23 C          65.4498   92.2430   12.2676 C.ar    1  UNL1        0.1366
     24 N          64.7683   92.6210   10.9859 N.ar    1  UNL1       -0.1258
     25 N          65.7801   93.2889   10.1025 N.ar    1  UNL1       -0.0406
     26 N          67.0868   93.3237   10.8382 N.ar    1  UNL1       -0.1095
     27 C          66.8827   92.6773   12.1763 C.ar    1  UNL1        0.1838
     28 N          67.8164   92.4280   13.3235 N.ar    1  UNL1       -0.3249
     29 H          67.9236   91.0466   16.5219 H       1  UNL1        0.1437
     30 H          69.1916   91.7803   15.6491 H       1  UNL1        0.1437
     31 H          68.7569   92.7130   13.2636 H       1  UNL1        0.1686
@<TRIPOS>BOND
     1    19    20    1
     2    20    21   ar
     3    21    22   ar
     4    22    18    1
     5    18     1    1
     6     1     2   ar
     7     2     3   ar
     8     3     4   ar
     9     4     6    1
    10     6     7   ar
    11     7     8   ar
    12     8     9   ar
    13     9    10   ar
    14    10    12    1
    15    12    13   ar
    16    13    14   ar
    17    14    15   ar
    18    15    16   ar
    19    16    17   ar
    20    10    11   ar
    21     4     5   ar
    22    22    23   ar
    23    23    24   ar
    24    24    25   ar
    25    25    26   ar
    26    26    27   ar
    27    27    28   ar
    28    28    20   ar
    29     5     1   ar
    30    27    23    1
    31    11     6   ar
    32    17    12   ar
    33    19    29    1
    34    19    30    1
    35    28    31    1
@<TRIPOS>MOLECULE
*****
 31 35 0 0 0
SMALL
GASTEIGER

@<TRIPOS>ATOM
      1 C          65.3415   91.6396   13.1661 C.ar    1  UNL1        0.0849
      2 C          64.7669   91.0419   14.4161 C.ar    1  UNL1        0.0374
      3 C          63.5002   90.3276   14.0484 C.ar    1  UNL1        0.1016
      4 N          63.2920   90.4837   12.5712 N.ar    1  UNL1       -0.2285
      5 N          64.4300   91.2946   12.0259 N.ar    1  UNL1       -0.1691
      6 C          62.1468   89.9267   11.7784 C.ar    1  UNL1        0.0828
      7 C          60.7735   90.5096   11.9335 C.ar    1  UNL1        0.0191
      8 C          59.6284   89.9527   11.1407 C.ar    1  UNL1        0.0015
      9 C          59.8567   88.8128   10.1927 C.ar    1  UNL1        0.0001
     10 C          61.2301   88.2299   10.0377 C.ar    1  UNL1        0.0015
     11 C          62.3752   88.7869   10.8305 C.ar    1  UNL1        0.0191
     12 C          61.4584   87.0900    9.0897 C.ar    1  UNL1        0.0000
     13 C          62.7601   86.3448    9.1127 C.ar    1  UNL1        0.0000
     14 C          62.9884   85.2049    8.1648 C.ar    1  UNL1        0.0000
     15 C          61.9152   84.8102    7.1939 C.ar    1  UNL1        0.0000
     16 C          60.6136   85.5554    7.1711 C.ar    1  UNL1        0.0000
     17 C          60.3853   86.6954    8.1190 C.ar    1  UNL1        0.0000
     18 C          66.6057   92.4415   13.0726 C.3     1  UNL1        0.0757
     19 N          68.8886   92.1779    8.4122 N.pl3   1  UNL1       -0.3441
     20 C          68.1300   92.9578    9.4450 C.ar    1  UNL1        0.1035
     21 C          67.7471   92.3098   10.7424 C.ar    1  UNL1        0.0297
     22 C          66.9886   93.0896   11.7751 C.ar    1  UNL1        0.0090
     23 C          66.6130   94.5175   11.5104 C.ar    1  UNL1        0.1366
     24 N          65.8720   95.5294   12.3330 N.ar    1  UNL1       -0.1258
     25 N          65.7969   96.8029   11.5439 N.ar    1  UNL1       -0.0406
     26 N          66.4915   96.5780   10.2336 N.ar    1  UNL1       -0.1095
     27 C          66.9959   95.1655   10.2129 C.ar    1  UNL1        0.1838
     28 N          67.7545   94.3856    9.1802 N.ar    1  UNL1       -0.3249
     29 H          69.1351   91.2408    8.5859 H       1  UNL1        0.1437
     30 H          69.1399   92.6033    7.5606 H       1  UNL1        0.1437
     31 H          68.0058   94.8109    8.3286 H       1  UNL1        0.1686
@<TRIPOS>BOND
     1    19    20    1
     2    20    21   ar
     3    21    22   ar
     4    22    18    1
     5    18     1    1
     6     1     2   ar
     7     2     3   ar
     8     3     4   ar
     9     4     6    1
    10     6     7   ar
    11     7     8   ar
    12     8     9   ar
    13     9    10   ar
    14    10    12    1
    15    12    13   ar
    16    13    14   ar
    17    14    15   ar
    18    15    16   ar
    19    16    17   ar
    20    10    11   ar
    21     4     5   ar
    22    22    23   ar
    23    23    24   ar
    24    24    25   ar
    25    25    26   ar
    26    26    27   ar
    27    27    28   ar
    28    28    20   ar
    29     5     1   ar
    30    27    23    1
    31    11     6   ar
    32    17    12   ar
    33    19    29    1
    34    19    30    1
    35    28    31    1
@<TRIPOS>MOLECULE
*****
 31 35 0 0 0
SMALL
GASTEIGER

@<TRIPOS>ATOM
      1 C          61.4158   88.5053   11.0869 C.ar    1  UNL1        0.0849
      2 C          60.7157   89.7567   10.6467 C.ar    1  UNL1        0.0374
      3 C          61.6013   90.9226   10.9729 C.ar    1  UNL1        0.1016
      4 N          62.8488   90.3918   11.6148 N.ar    1  UNL1       -0.2285
      5 N          62.7342   88.8978   11.6852 N.ar    1  UNL1       -0.1691
      6 C          64.0076   91.2110   12.1008 C.ar    1  UNL1        0.0828
      7 C          64.5985   90.9458   13.4537 C.ar    1  UNL1        0.0191
      8 C          65.7572   91.7650   13.9398 C.ar    1  UNL1        0.0015
      9 C          66.3250   92.8495   13.0728 C.ar    1  UNL1        0.0001
     10 C          65.7340   93.1147   11.7199 C.ar    1  UNL1        0.0015
     11 C          64.5753   92.2954   11.2339 C.ar    1  UNL1        0.0191
     12 C          66.3018   94.1991   10.8529 C.ar    1  UNL1        0.0000
     13 C          66.1208   95.6380   11.2366 C.ar    1  UNL1        0.0000
     14 C          66.6885   96.7224   10.3696 C.ar    1  UNL1        0.0000
     15 C          67.4373   96.3681    9.1190 C.ar    1  UNL1        0.0000
     16 C          67.6183   94.9294    8.7355 C.ar    1  UNL1        0.0000
     17 C          67.0505   93.8448    9.6024 C.ar    1  UNL1        0.0000
     18 C          60.8900   87.1070   10.9525 C.3     1  UNL1        0.0757
     19 N          62.9134   84.6428    6.8495 N.pl3   1  UNL1       -0.3441
     20 C          62.7767   84.7958    8.3355 C.ar    1  UNL1        0.1035
     21 C          61.9017   85.8749    8.9010 C.ar    1  UNL1        0.0297
     22 C          61.7650   86.0278   10.3870 C.ar    1  UNL1        0.0090
     23 C          62.5033   85.1016   11.3073 C.ar    1  UNL1        0.1366
     24 N          62.5633   85.0105   12.8033 N.ar    1  UNL1       -0.1258
     25 N          63.4753   83.8750   13.1623 N.ar    1  UNL1       -0.0406
     26 N          63.9790   83.2643   11.8881 N.ar    1  UNL1       -0.1095
     27 C          63.3783   84.0224   10.7417 C.ar    1  UNL1        0.1838
     28 N          63.5150   83.8695    9.2558 N.ar    1  UNL1       -0.3249
     29 H          62.4288   85.2507    6.2454 H       1  UNL1        0.1437
     30 H          63.4877   83.9345    6.4783 H       1  UNL1        0.1437
     31 H          64.0892   83.1613    8.8845 H       1  UNL1        0.1686
@<TRIPOS>BOND
     1    19    20    1
     2    20    21   ar
     3    21    22   ar
     4    22    18    1
     5    18     1    1
     6     1     2   ar
     7     2     3   ar
     8     3     4   ar
     9     4     6    1
    10     6     7   ar
    11     7     8   ar
    12     8     9   ar
    13     9    10   ar
    14    10    12    1
    15    12    13   ar
    16    13    14   ar
    17    14    15   ar
    18    15    16   ar
    19    16    17   ar
    20    10    11   ar
    21     4     5   ar
    22    22    23   ar
    23    23    24   ar
    24    24    25   ar
    25    25    26   ar
    26    26    27   ar
    27    27    28   ar
    28    28    20   ar
    29     5     1   ar
    30    27    23    1
    31    11     6   ar
    32    17    12   ar
    33    19    29    1
    34    19    30    1
    35    28    31    1
@<TRIPOS>MOLECULE
*****
 31 35 0 0 0
SMALL
GASTEIGER

@<TRIPOS>ATOM
      1 C          61.9324   87.5502   11.1881 C.ar    1  UNL1        0.0849
      2 C          61.2138   88.6485   10.4620 C.ar    1  UNL1        0.0374
      3 C          61.8944   89.9441   10.7909 C.ar    1  UNL1        0.1016
      4 N          63.0335   89.6466   11.7202 N.ar    1  UNL1       -0.2285
      5 N          63.0571   88.1670   11.9657 N.ar    1  UNL1       -0.1691
      6 C          63.9827   90.6520   12.3020 C.ar    1  UNL1        0.0828
      7 C          64.3126   90.6132   13.7646 C.ar    1  UNL1        0.0191
      8 C          65.2617   91.6185   14.3464 C.ar    1  UNL1        0.0015
      9 C          65.8808   92.6629   13.4653 C.ar    1  UNL1        0.0001
     10 C          65.5508   92.7017   12.0026 C.ar    1  UNL1        0.0015
     11 C          64.6017   91.6963   11.4209 C.ar    1  UNL1        0.0191
     12 C          66.1699   93.7459   11.1215 C.ar    1  UNL1        0.0000
     13 C          66.9210   93.3379    9.8889 C.ar    1  UNL1        0.0000
     14 C          67.5401   94.3821    9.0078 C.ar    1  UNL1        0.0000
     15 C          67.4081   95.8344    9.3593 C.ar    1  UNL1        0.0000
     16 C          66.6570   96.2424   10.5919 C.ar    1  UNL1        0.0000
     17 C          66.0378   95.1981   11.4730 C.ar    1  UNL1        0.0000
     18 C          61.5871   86.0911   11.1443 C.3     1  UNL1        0.0757
     19 N          62.7059   84.2214   15.8616 N.pl3   1  UNL1       -0.3441
     20 C          62.8865   84.1839   14.3729 C.ar    1  UNL1        0.1035
     21 C          62.1465   85.1562   13.5029 C.ar    1  UNL1        0.0297
     22 C          62.3271   85.1188   12.0142 C.ar    1  UNL1        0.0090
     23 C          63.2478   84.1089   11.3957 C.ar    1  UNL1        0.1366
     24 N          63.6238   83.8344    9.9698 N.ar    1  UNL1       -0.1258
     25 N          64.5962   82.6923    9.9586 N.ar    1  UNL1       -0.0406
     26 N          64.8212   82.2611   11.3775 N.ar    1  UNL1       -0.1095
     27 C          63.9878   83.1366   12.2657 C.ar    1  UNL1        0.1838
     28 N          63.8072   83.1741   13.7543 N.ar    1  UNL1       -0.3249
     29 H          62.1017   84.8842   16.2676 H       1  UNL1        0.1437
     30 H          63.1917   83.5832   16.4326 H       1  UNL1        0.1437
     31 H          64.2929   82.5360   14.3254 H       1  UNL1        0.1686
@<TRIPOS>BOND
     1    19    20    1
     2    20    21   ar
     3    21    22   ar
     4    22    18    1
     5    18     1    1
     6     1     2   ar
     7     2     3   ar
     8     3     4   ar
     9     4     6    1
    10     6     7   ar
    11     7     8   ar
    12     8     9   ar
    13     9    10   ar
    14    10    12    1
    15    12    13   ar
    16    13    14   ar
    17    14    15   ar
    18    15    16   ar
    19    16    17   ar
    20    10    11   ar
    21     4     5   ar
    22    22    23   ar
    23    23    24   ar
    24    24    25   ar
    25    25    26   ar
    26    26    27   ar
    27    27    28   ar
    28    28    20   ar
    29     5     1   ar
    30    27    23    1
    31    11     6   ar
    32    17    12   ar
    33    19    29    1
    34    19    30    1
    35    28    31    1
@<TRIPOS>MOLECULE
*****
 31 35 0 0 0
SMALL
GASTEIGER

@<TRIPOS>ATOM
      1 C          61.9182   89.8984   10.4058 C.ar    1  UNL1        0.0849
      2 C          60.6457   89.5343    9.6999 C.ar    1  UNL1        0.0374
      3 C          60.6932   88.0684    9.3856 C.ar    1  UNL1        0.1016
      4 N          61.9949   87.5264    9.8972 N.ar    1  UNL1       -0.2285
      5 N          62.7520   88.6575   10.5278 N.ar    1  UNL1       -0.1691
      6 C          62.4583   86.1033    9.7961 C.ar    1  UNL1        0.0828
      7 C          63.0491   85.5962    8.5141 C.ar    1  UNL1        0.0191
      8 C          63.5124   84.1732    8.4130 C.ar    1  UNL1        0.0015
      9 C          63.3849   83.2572    9.5941 C.ar    1  UNL1        0.0001
     10 C          62.7941   83.7644   10.8761 C.ar    1  UNL1        0.0015
     11 C          62.3307   85.1875   10.9772 C.ar    1  UNL1        0.0191
     12 C          62.6666   82.8485   12.0572 C.ar    1  UNL1        0.0000
     13 C          62.5109   83.4194   13.4356 C.ar    1  UNL1        0.0000
     14 C          62.3834   82.5035   14.6166 C.ar    1  UNL1        0.0000
     15 C          62.4116   81.0168   14.4194 C.ar    1  UNL1        0.0000
     16 C          62.5672   80.4460   13.0410 C.ar    1  UNL1        0.0000
     17 C          62.6948   81.3619   11.8599 C.ar    1  UNL1        0.0000
     18 C          62.2913   91.2636   10.9026 C.3     1  UNL1        0.0757
     19 N          67.0637   93.1394   11.7431 N.pl3   1  UNL1       -0.3441
     20 C          65.8659   92.3737   12.2217 C.ar    1  UNL1        0.1035
     21 C          64.6775   92.2015   11.3229 C.ar    1  UNL1        0.0297
     22 C          63.4797   91.4358   11.8015 C.ar    1  UNL1        0.0090
     23 C          63.4705   90.8422   13.1790 C.ar    1  UNL1        0.1366
     24 N          62.4404   90.0426   13.9205 N.ar    1  UNL1       -0.1258
     25 N          62.9923   89.7206   15.2776 N.ar    1  UNL1       -0.0406
     26 N          64.3634   90.3212   15.3749 N.ar    1  UNL1       -0.1095
     27 C          64.6589   91.0144   14.0779 C.ar    1  UNL1        0.1838
     28 N          65.8566   91.7801   13.5993 N.ar    1  UNL1       -0.3249
     29 H          67.0698   93.5290   10.8390 H       1  UNL1        0.1437
     30 H          67.8437   93.2524   12.3331 H       1  UNL1        0.1437
     31 H          66.6366   91.8931   14.1892 H       1  UNL1        0.1686
@<TRIPOS>BOND
     1    19    20    1
     2    20    21   ar
     3    21    22   ar
     4    22    18    1
     5    18     1    1
     6     1     2   ar
     7     2     3   ar
     8     3     4   ar
     9     4     6    1
    10     6     7   ar
    11     7     8   ar
    12     8     9   ar
    13     9    10   ar
    14    10    12    1
    15    12    13   ar
    16    13    14   ar
    17    14    15   ar
    18    15    16   ar
    19    16    17   ar
    20    10    11   ar
    21     4     5   ar
    22    22    23   ar
    23    23    24   ar
    24    24    25   ar
    25    25    26   ar
    26    26    27   ar
    27    27    28   ar
    28    28    20   ar
    29     5     1   ar
    30    27    23    1
    31    11     6   ar
    32    17    12   ar
    33    19    29    1
    34    19    30    1
    35    28    31    1
