@<TRIPOS>MOLECULE
*****
 34 37 0 0 0
SMALL
GASTEIGER

@<TRIPOS>ATOM
      1 C          63.7470   87.9577   15.9003 C.ar    1  UNL1        0.1681
      2 C          64.0838   87.3285   14.5810 C.ar    1  UNL1        0.0702
      3 C          63.8478   85.8627   14.3672 C.ar    1  UNL1        0.1620
      4 F          64.1846   85.2334   13.0479 F       1  UNL1       -0.2026
      5 C          63.2749   85.0262   15.4727 C.ar    1  UNL1        0.1549
      6 C          62.9381   85.6554   16.7920 C.ar    1  UNL1        0.0553
      7 C          63.1742   87.1212   17.0058 C.ar    1  UNL1        0.1753
      8 F          62.8373   87.7505   18.3251 F       1  UNL1       -0.2009
      9 S          63.0389   83.5603   15.2588 S.O2    1  UNL1        0.0773
     10 O          64.4830   83.2845   15.5562 O.2     1  UNL1       -0.1498
     11 O          61.5948   83.8362   14.9614 O.2     1  UNL1       -0.1498
     12 N          62.8030   82.0945   15.0449 N.pl3   1  UNL1       -0.1925
     13 H          62.6197   81.5081   15.8142 H       1  UNL1        0.1758
     14 C          62.8462   81.5223   13.6591 C.ar    1  UNL1        0.1977
     15 N          63.2762   82.2479   12.4186 N.ar    1  UNL1       -0.1997
     16 C          63.1628   81.2981   11.2632 C.ar    1  UNL1        0.2082
     17 N          62.6627   79.9855   11.7895 N.ar    1  UNL1       -0.1840
     18 S          62.4670   80.1241   13.2703 S.2     1  UNL1        0.0508
     19 O          63.9830   89.4235   16.1142 O.3     1  UNL1       -0.4731
     20 C          63.6517   90.4029   15.0275 C.3     1  UNL1        0.2071
     21 C          67.7369   93.5385   15.7202 C.3     1  UNL1        0.0896
     22 N          66.7672   92.8512   14.8050 N.3     1  UNL1       -0.2714
     23 C          66.8705   93.0444   13.3212 C.3     1  UNL1        0.0725
     24 C          65.9009   92.3572   12.4060 C.3     1  UNL1        0.0218
     25 C          64.8279   91.4767   12.9748 C.3     1  UNL1        0.0287
     26 C          64.7247   91.2835   14.4586 C.3     1  UNL1        0.0638
     27 C          65.6943   91.9707   15.3738 C.3     1  UNL1        0.0761
     28 C          63.8583   90.7894   12.0596 C.ar    1  UNL1       -0.0222
     29 C          63.4364   91.4504   10.7810 C.ar    1  UNL1       -0.0034
     30 C          62.4667   90.7631    9.8658 C.ar    1  UNL1        0.0111
     31 C          61.9190   89.4149   10.2294 C.ar    1  UNL1        0.0577
     32 CL         60.9494   88.7276    9.3142 Cl      1  UNL1       -0.0822
     33 C          62.3410   88.7539   11.5080 C.ar    1  UNL1        0.0111
     34 C          63.3106   89.4412   12.4232 C.ar    1  UNL1       -0.0034
@<TRIPOS>BOND
     1    21    22    1
     2    22    23    1
     3    23    24    1
     4    24    25    1
     5    25    28    1
     6    28    29   ar
     7    29    30   ar
     8    30    31   ar
     9    31    32    1
    10    31    33   ar
    11    33    34   ar
    12    25    26    1
    13    26    20    1
    14    20    19    1
    15    19     1    1
    16     1     2   ar
    17     2     3   ar
    18     3     4    1
    19     3     5   ar
    20     5     9    1
    21     9    10    2
    22     9    11    2
    23     9    12    1
    24    12    14    1
    25    14    15   ar
    26    15    16   ar
    27    16    17   ar
    28    17    18   ar
    29     5     6   ar
    30     6     7   ar
    31     7     8    1
    32    26    27    1
    33    27    22    1
    34    34    28   ar
    35     7     1   ar
    36    18    14   ar
    37    12    13    1
@<TRIPOS>MOLECULE
*****
 34 37 0 0 0
SMALL
GASTEIGER

@<TRIPOS>ATOM
      1 C          62.5806   89.9529   12.0409 C.ar    1  UNL1        0.1681
      2 C          63.5277   90.1397   13.1889 C.ar    1  UNL1        0.0702
      3 C          64.6439   91.1364   13.0858 C.ar    1  UNL1        0.1620
      4 F          65.5911   91.3233   14.2339 F       1  UNL1       -0.2026
      5 C          64.8131   91.9462   11.8346 C.ar    1  UNL1        0.1549
      6 C          63.8660   91.7594   10.6865 C.ar    1  UNL1        0.0553
      7 C          62.7498   90.7627   10.7896 C.ar    1  UNL1        0.1753
      8 F          61.8027   90.5758    9.6415 F       1  UNL1       -0.2009
      9 S          65.9294   92.9429   11.7314 S.O2    1  UNL1        0.0773
     10 O          66.3799   92.3058   10.4504 O.2     1  UNL1       -0.1498
     11 O          65.4789   93.5801   13.0124 O.2     1  UNL1       -0.1498
     12 N          67.0456   93.9396   11.6283 N.pl3   1  UNL1       -0.1925
     13 H          67.7726   93.9348   12.2921 H       1  UNL1        0.1758
     14 C          67.0541   94.9434   10.5138 C.ar    1  UNL1        0.1977
     15 N          67.9785   94.9414    9.3324 N.ar    1  UNL1       -0.1997
     16 C          67.6355   96.1222    8.4733 C.ar    1  UNL1        0.2082
     17 N          66.4990   96.8541    9.1237 N.ar    1  UNL1       -0.1840
     18 S          66.1397   96.1255   10.3848 S.2     1  UNL1        0.0508
     19 O          61.4644   88.9562   12.1440 O.3     1  UNL1       -0.4731
     20 C          61.6431   87.5707   11.5977 C.3     1  UNL1        0.2071
     21 C          59.0576   88.8955    7.2895 C.3     1  UNL1        0.0896
     22 N          59.8962   87.9118    8.0506 N.3     1  UNL1       -0.2714
     23 C          60.2807   86.6070    7.4186 C.3     1  UNL1        0.0725
     24 C          61.1193   85.6233    8.1796 C.3     1  UNL1        0.0218
     25 C          61.5734   85.9446    9.5726 C.3     1  UNL1        0.0287
     26 C          61.1890   87.2494   10.2046 C.3     1  UNL1        0.0638
     27 C          60.3503   88.2331    9.4436 C.3     1  UNL1        0.0761
     28 C          62.4121   84.9609   10.3337 C.ar    1  UNL1       -0.0222
     29 C          63.4146   84.1119    9.6098 C.ar    1  UNL1       -0.0034
     30 C          64.2532   83.1282   10.3708 C.ar    1  UNL1        0.0111
     31 C          64.0893   82.9937   11.8557 C.ar    1  UNL1        0.0577
     32 CL         64.9280   82.0100   12.6167 Cl      1  UNL1       -0.0822
     33 C          63.0868   83.8428   12.5796 C.ar    1  UNL1        0.0111
     34 C          62.2482   84.8264   11.8186 C.ar    1  UNL1       -0.0034
@<TRIPOS>BOND
     1    21    22    1
     2    22    23    1
     3    23    24    1
     4    24    25    1
     5    25    28    1
     6    28    29   ar
     7    29    30   ar
     8    30    31   ar
     9    31    32    1
    10    31    33   ar
    11    33    34   ar
    12    25    26    1
    13    26    20    1
    14    20    19    1
    15    19     1    1
    16     1     2   ar
    17     2     3   ar
    18     3     4    1
    19     3     5   ar
    20     5     9    1
    21     9    10    2
    22     9    11    2
    23     9    12    1
    24    12    14    1
    25    14    15   ar
    26    15    16   ar
    27    16    17   ar
    28    17    18   ar
    29     5     6   ar
    30     6     7   ar
    31     7     8    1
    32    26    27    1
    33    27    22    1
    34    34    28   ar
    35     7     1   ar
    36    18    14   ar
    37    12    13    1
@<TRIPOS>MOLECULE
*****
 34 37 0 0 0
SMALL
GASTEIGER

@<TRIPOS>ATOM
      1 C          62.3244   87.8614   11.0303 C.ar    1  UNL1        0.1681
      2 C          62.9312   87.1641   12.2115 C.ar    1  UNL1        0.0702
      3 C          63.1850   85.6866   12.1613 C.ar    1  UNL1        0.1620
      4 F          63.7918   84.9892   13.3426 F       1  UNL1       -0.2026
      5 C          62.8320   84.9065   10.9297 C.ar    1  UNL1        0.1549
      6 C          62.2252   85.6038    9.7484 C.ar    1  UNL1        0.0553
      7 C          61.9714   87.0813    9.7987 C.ar    1  UNL1        0.1753
      8 F          61.3646   87.7787    8.6174 F       1  UNL1       -0.2009
      9 S          63.0858   83.4289   10.8794 S.O2    1  UNL1        0.0773
     10 O          62.0269   83.2117   11.9193 O.2     1  UNL1       -0.1498
     11 O          64.1448   83.6461    9.8395 O.2     1  UNL1       -0.1498
     12 N          63.3396   81.9514   10.8292 N.pl3   1  UNL1       -0.1925
     13 H          63.5735   81.5209    9.9753 H       1  UNL1        0.1758
     14 C          63.2371   81.1299   12.0800 C.ar    1  UNL1        0.1977
     15 N          62.4173   79.8857   12.2531 N.ar    1  UNL1       -0.1997
     16 C          62.6099   79.3952   13.6574 C.ar    1  UNL1        0.2082
     17 N          63.5488   80.3362   14.3525 N.ar    1  UNL1       -0.1840
     18 S          63.9364   81.4084   13.3775 S.2     1  UNL1        0.0508
     19 O          62.0706   89.3390   11.0805 O.3     1  UNL1       -0.4731
     20 C          62.3817   90.1114   12.3281 C.3     1  UNL1        0.2071
     21 C          65.9146   93.4320   10.4594 C.3     1  UNL1        0.0896
     22 N          65.4627   92.4815   11.5282 N.3     1  UNL1       -0.2714
     23 C          66.3254   92.2408   12.7314 C.3     1  UNL1        0.0725
     24 C          65.8735   91.2904   13.8002 C.3     1  UNL1        0.0218
     25 C          64.5590   90.5806   13.6658 C.3     1  UNL1        0.0287
     26 C          63.6963   90.8212   12.4626 C.3     1  UNL1        0.0638
     27 C          64.1482   91.7717   11.3938 C.3     1  UNL1        0.0761
     28 C          64.1071   89.6301   14.7346 C.ar    1  UNL1       -0.0222
     29 C          63.3155   90.1372   15.9035 C.ar    1  UNL1       -0.0034
     30 C          62.8636   89.1867   16.9723 C.ar    1  UNL1        0.0111
     31 C          63.2033   87.7291   16.8723 C.ar    1  UNL1        0.0577
     32 CL         62.7514   86.7786   17.9411 Cl      1  UNL1       -0.0822
     33 C          63.9949   87.2220   15.7034 C.ar    1  UNL1        0.0111
     34 C          64.4468   88.1725   14.6346 C.ar    1  UNL1       -0.0034
@<TRIPOS>BOND
     1    21    22    1
     2    22    23    1
     3    23    24    1
     4    24    25    1
     5    25    28    1
     6    28    29   ar
     7    29    30   ar
     8    30    31   ar
     9    31    32    1
    10    31    33   ar
    11    33    34   ar
    12    25    26    1
    13    26    20    1
    14    20    19    1
    15    19     1    1
    16     1     2   ar
    17     2     3   ar
    18     3     4    1
    19     3     5   ar
    20     5     9    1
    21     9    10    2
    22     9    11    2
    23     9    12    1
    24    12    14    1
    25    14    15   ar
    26    15    16   ar
    27    16    17   ar
    28    17    18   ar
    29     5     6   ar
    30     6     7   ar
    31     7     8    1
    32    26    27    1
    33    27    22    1
    34    34    28   ar
    35     7     1   ar
    36    18    14   ar
    37    12    13    1
@<TRIPOS>MOLECULE
*****
 34 37 0 0 0
SMALL
GASTEIGER

@<TRIPOS>ATOM
      1 C          62.1712   89.3977   11.2596 C.ar    1  UNL1        0.1681
      2 C          63.0378   89.3375   12.4824 C.ar    1  UNL1        0.0702
      3 C          64.1191   90.3568   12.6862 C.ar    1  UNL1        0.1620
      4 F          64.9859   90.2966   13.9090 F       1  UNL1       -0.2026
      5 C          64.3338   91.4365   11.6672 C.ar    1  UNL1        0.1549
      6 C          63.4672   91.4967   10.4444 C.ar    1  UNL1        0.0553
      7 C          62.3859   90.4774   10.2406 C.ar    1  UNL1        0.1753
      8 F          61.5192   90.5376    9.0178 F       1  UNL1       -0.2009
      9 S          65.4152   92.4559   11.8710 S.O2    1  UNL1        0.0773
     10 O          64.9278   92.6932   13.2696 O.2     1  UNL1       -0.1498
     11 O          65.9027   92.2185   10.4725 O.2     1  UNL1       -0.1498
     12 N          66.4966   93.4752   12.0749 N.pl3   1  UNL1       -0.1925
     13 H          67.0807   93.4218   12.8656 H       1  UNL1        0.1758
     14 C          66.6879   94.5760   11.0741 C.ar    1  UNL1        0.1977
     15 N          67.6590   94.5692    9.9308 N.ar    1  UNL1       -0.1997
     16 C          67.5130   95.8659    9.1910 C.ar    1  UNL1        0.2082
     17 N          66.4517   96.6741    9.8769 N.ar    1  UNL1       -0.1840
     18 S          65.9418   95.8768   11.0408 S.2     1  UNL1        0.0508
     19 O          61.0898   88.3783   11.0557 O.3     1  UNL1       -0.4731
     20 C          61.2457   86.9968   11.6186 C.3     1  UNL1        0.2071
     21 C          62.6831   84.7153    7.1769 C.3     1  UNL1        0.0896
     22 N          62.7893   84.8376    8.6681 N.3     1  UNL1       -0.2714
     23 C          63.7205   83.9416    9.4297 C.3     1  UNL1        0.0725
     24 C          63.8267   84.0639   10.9209 C.3     1  UNL1        0.0218
     25 C          63.0018   85.0823   11.6506 C.3     1  UNL1        0.0287
     26 C          62.0707   85.9783   10.8890 C.3     1  UNL1        0.0638
     27 C          61.9644   85.8560    9.3977 C.3     1  UNL1        0.0761
     28 C          63.1080   85.2046   13.1418 C.ar    1  UNL1       -0.0222
     29 C          64.0136   86.2359   13.7471 C.ar    1  UNL1       -0.0034
     30 C          64.1198   86.3582   15.2383 C.ar    1  UNL1        0.0111
     31 C          63.3205   85.4493   16.1242 C.ar    1  UNL1        0.0577
     32 CL         63.4268   85.5717   17.6154 Cl      1  UNL1       -0.0822
     33 C          62.4150   84.4180   15.5189 C.ar    1  UNL1        0.0111
     34 C          62.3087   84.2957   14.0277 C.ar    1  UNL1       -0.0034
@<TRIPOS>BOND
     1    21    22    1
     2    22    23    1
     3    23    24    1
     4    24    25    1
     5    25    28    1
     6    28    29   ar
     7    29    30   ar
     8    30    31   ar
     9    31    32    1
    10    31    33   ar
    11    33    34   ar
    12    25    26    1
    13    26    20    1
    14    20    19    1
    15    19     1    1
    16     1     2   ar
    17     2     3   ar
    18     3     4    1
    19     3     5   ar
    20     5     9    1
    21     9    10    2
    22     9    11    2
    23     9    12    1
    24    12    14    1
    25    14    15   ar
    26    15    16   ar
    27    16    17   ar
    28    17    18   ar
    29     5     6   ar
    30     6     7   ar
    31     7     8    1
    32    26    27    1
    33    27    22    1
    34    34    28   ar
    35     7     1   ar
    36    18    14   ar
    37    12    13    1
@<TRIPOS>MOLECULE
*****
 34 37 0 0 0
SMALL
GASTEIGER

@<TRIPOS>ATOM
      1 C          63.5214   89.8772   12.8612 C.ar    1  UNL1        0.1681
      2 C          63.3208   90.6158   11.5712 C.ar    1  UNL1        0.0702
      3 C          64.2053   91.7771   11.2266 C.ar    1  UNL1        0.1620
      4 F          64.0048   92.5158    9.9365 F       1  UNL1       -0.2026
      5 C          65.2905   92.1998   12.1719 C.ar    1  UNL1        0.1549
      6 C          65.4911   91.4612   13.4619 C.ar    1  UNL1        0.0553
      7 C          64.6066   90.2999   13.8066 C.ar    1  UNL1        0.1753
      8 F          64.8072   89.5612   15.0967 F       1  UNL1       -0.2009
      9 S          66.1751   93.3612   11.8272 S.O2    1  UNL1        0.0773
     10 O          66.5612   92.6863   10.5445 O.2     1  UNL1       -0.1498
     11 O          65.7890   94.0361   13.1099 O.2     1  UNL1       -0.1498
     12 N          67.0597   94.5225   11.4825 N.pl3   1  UNL1       -0.1925
     13 H          67.8305   94.7411   12.0546 H       1  UNL1        0.1758
     14 C          66.7698   95.3508   10.2660 C.ar    1  UNL1        0.1977
     15 N          67.6403   95.4659    9.0497 N.ar    1  UNL1       -0.1997
     16 C          66.9671   96.3957    8.0842 C.ar    1  UNL1        0.2082
     17 N          65.6806   96.8553    8.7036 N.ar    1  UNL1       -0.1840
     18 S          65.5587   96.2095   10.0521 S.2     1  UNL1        0.0508
     19 O          62.6368   88.7158   13.2059 O.3     1  UNL1       -0.4731
     20 C          61.9131   87.9760   12.1202 C.3     1  UNL1        0.2071
     21 C          64.4133   83.5635   13.2507 C.3     1  UNL1        0.0896
     22 N          63.6037   84.3898   12.2959 N.3     1  UNL1       -0.2714
     23 C          63.2347   83.8363   10.9516 C.3     1  UNL1        0.0725
     24 C          62.4251   84.6626    9.9967 C.3     1  UNL1        0.0218
     25 C          61.9846   86.0425   10.3862 C.3     1  UNL1        0.0287
     26 C          62.3536   86.5961   11.7306 C.3     1  UNL1        0.0638
     27 C          63.1632   85.7697   12.6854 C.3     1  UNL1        0.0761
     28 C          61.1750   86.8689    9.4314 C.ar    1  UNL1       -0.0222
     29 C          61.1780   88.3645    9.5450 C.ar    1  UNL1       -0.0034
     30 C          60.3684   89.1909    8.5902 C.ar    1  UNL1        0.0111
     31 C          59.5558   88.5216    7.5217 C.ar    1  UNL1        0.0577
     32 CL         58.7462   89.3479    6.5669 Cl      1  UNL1       -0.0822
     33 C          59.5527   87.0259    7.4081 C.ar    1  UNL1        0.0111
     34 C          60.3623   86.1996    8.3630 C.ar    1  UNL1       -0.0034
@<TRIPOS>BOND
     1    21    22    1
     2    22    23    1
     3    23    24    1
     4    24    25    1
     5    25    28    1
     6    28    29   ar
     7    29    30   ar
     8    30    31   ar
     9    31    32    1
    10    31    33   ar
    11    33    34   ar
    12    25    26    1
    13    26    20    1
    14    20    19    1
    15    19     1    1
    16     1     2   ar
    17     2     3   ar
    18     3     4    1
    19     3     5   ar
    20     5     9    1
    21     9    10    2
    22     9    11    2
    23     9    12    1
    24    12    14    1
    25    14    15   ar
    26    15    16   ar
    27    16    17   ar
    28    17    18   ar
    29     5     6   ar
    30     6     7   ar
    31     7     8    1
    32    26    27    1
    33    27    22    1
    34    34    28   ar
    35     7     1   ar
    36    18    14   ar
    37    12    13    1
@<TRIPOS>MOLECULE
*****
 34 37 0 0 0
SMALL
GASTEIGER

@<TRIPOS>ATOM
      1 C          62.4086   85.9953   11.4227 C.ar    1  UNL1        0.1681
      2 C          63.2462   86.4382   12.5855 C.ar    1  UNL1        0.0702
      3 C          63.5049   87.8985   12.8102 C.ar    1  UNL1        0.1620
      4 F          64.3426   88.3415   13.9730 F       1  UNL1       -0.2026
      5 C          62.9261   88.9158   11.8722 C.ar    1  UNL1        0.1549
      6 C          62.0884   88.4729   10.7094 C.ar    1  UNL1        0.0553
      7 C          61.8297   87.0126   10.4846 C.ar    1  UNL1        0.1753
      8 F          60.9920   86.5696    9.3218 F       1  UNL1       -0.2009
      9 S          63.1848   90.3762   12.0970 S.O2    1  UNL1        0.0773
     10 O          62.7836   90.2260   13.5344 O.2     1  UNL1       -0.1498
     11 O          63.5861   90.5264   10.6595 O.2     1  UNL1       -0.1498
     12 N          63.4436   91.8365   12.3218 N.pl3   1  UNL1       -0.1925
     13 H          62.7091   92.4860   12.2329 H       1  UNL1        0.1758
     14 C          64.8215   92.3072   12.6822 C.ar    1  UNL1        0.1977
     15 N          65.4402   92.2602   14.0479 N.ar    1  UNL1       -0.1997
     16 C          66.8237   92.8315   13.9499 C.ar    1  UNL1        0.2082
     17 N          67.0601   93.2315   12.5236 N.ar    1  UNL1       -0.1840
     18 S          65.8226   92.9075   11.7401 S.2     1  UNL1        0.0508
     19 O          62.1498   84.5349   11.1979 O.3     1  UNL1       -0.4731
     20 C          63.2907   83.5612   11.2056 C.3     1  UNL1        0.2071
     21 C          62.6732   78.4763   10.3323 C.3     1  UNL1        0.0896
     22 N          62.7765   79.6268   11.2891 N.3     1  UNL1       -0.2714
     23 C          62.6745   79.3856   12.7660 C.3     1  UNL1        0.0725
     24 C          62.7778   80.5362   13.7228 C.3     1  UNL1        0.0218
     25 C          62.9832   81.9280   13.2027 C.3     1  UNL1        0.0287
     26 C          63.0853   82.1693   11.7258 C.3     1  UNL1        0.0638
     27 C          62.9819   81.0187   10.7690 C.3     1  UNL1        0.0761
     28 C          63.0866   83.0786   14.1595 C.ar    1  UNL1       -0.0222
     29 C          64.4272   83.6713   14.4778 C.ar    1  UNL1       -0.0034
     30 C          64.5305   84.8219   15.4346 C.ar    1  UNL1        0.0111
     31 C          63.2932   85.3798   16.0731 C.ar    1  UNL1        0.0577
     32 CL         63.3966   86.5304   17.0299 Cl      1  UNL1       -0.0822
     33 C          61.9526   84.7871   15.7548 C.ar    1  UNL1        0.0111
     34 C          61.8493   83.6365   14.7980 C.ar    1  UNL1       -0.0034
@<TRIPOS>BOND
     1    21    22    1
     2    22    23    1
     3    23    24    1
     4    24    25    1
     5    25    28    1
     6    28    29   ar
     7    29    30   ar
     8    30    31   ar
     9    31    32    1
    10    31    33   ar
    11    33    34   ar
    12    25    26    1
    13    26    20    1
    14    20    19    1
    15    19     1    1
    16     1     2   ar
    17     2     3   ar
    18     3     4    1
    19     3     5   ar
    20     5     9    1
    21     9    10    2
    22     9    11    2
    23     9    12    1
    24    12    14    1
    25    14    15   ar
    26    15    16   ar
    27    16    17   ar
    28    17    18   ar
    29     5     6   ar
    30     6     7   ar
    31     7     8    1
    32    26    27    1
    33    27    22    1
    34    34    28   ar
    35     7     1   ar
    36    18    14   ar
    37    12    13    1
@<TRIPOS>MOLECULE
*****
 34 37 0 0 0
SMALL
GASTEIGER

@<TRIPOS>ATOM
      1 C          62.5016   88.9996   11.2660 C.ar    1  UNL1        0.1681
      2 C          63.1771   88.2180   12.3535 C.ar    1  UNL1        0.0702
      3 C          63.2204   86.7202   12.2846 C.ar    1  UNL1        0.1620
      4 F          63.8960   85.9386   13.3722 F       1  UNL1       -0.2026
      5 C          62.5882   86.0040   11.1282 C.ar    1  UNL1        0.1549
      6 C          61.9127   86.7856   10.0406 C.ar    1  UNL1        0.0553
      7 C          61.8694   88.2834   10.1096 C.ar    1  UNL1        0.1753
      8 F          61.1938   89.0650    9.0220 F       1  UNL1       -0.2009
      9 S          62.6315   84.5062   11.0593 S.O2    1  UNL1        0.0773
     10 O          63.2949   84.5872    9.7164 O.2     1  UNL1       -0.1498
     11 O          61.9681   84.4252   12.4021 O.2     1  UNL1       -0.1498
     12 N          62.6749   83.0084   10.9904 N.pl3   1  UNL1       -0.1925
     13 H          62.5792   82.5526   10.1230 H       1  UNL1        0.1758
     14 C          62.8639   82.2052   12.2429 C.ar    1  UNL1        0.1977
     15 N          61.8512   81.2898   12.8647 N.ar    1  UNL1       -0.1997
     16 C          62.4602   80.6952   14.0998 C.ar    1  UNL1        0.2082
     17 N          63.8495   81.2430   14.2414 N.ar    1  UNL1       -0.1840
     18 S          64.0989   82.1763   13.0938 S.2     1  UNL1        0.0508
     19 O          62.4583   90.4974   11.3349 O.3     1  UNL1       -0.4731
     20 C          63.7328   91.2802   11.4472 C.3     1  UNL1        0.2071
     21 C          63.6918   90.6214   16.6013 C.3     1  UNL1        0.0896
     22 N          64.3104   91.2205   15.3731 N.3     1  UNL1       -0.2714
     23 C          65.5272   92.0893   15.4939 C.3     1  UNL1        0.0725
     24 C          66.1458   92.6884   14.2657 C.3     1  UNL1        0.0218
     25 C          65.5478   92.4187   12.9169 C.3     1  UNL1        0.0287
     26 C          64.3310   91.5499   12.7961 C.3     1  UNL1        0.0638
     27 C          63.7123   90.9508   14.0243 C.3     1  UNL1        0.0761
     28 C          66.1664   93.0179   11.6887 C.ar    1  UNL1       -0.0222
     29 C          65.7402   94.3780   11.2216 C.ar    1  UNL1       -0.0034
     30 C          66.3589   94.9771    9.9934 C.ar    1  UNL1        0.0111
     31 C          67.4037   94.2161    9.2325 C.ar    1  UNL1        0.0577
     32 CL         68.0224   94.8152    8.0043 Cl      1  UNL1       -0.0822
     33 C          67.8299   92.8560    9.6997 C.ar    1  UNL1        0.0111
     34 C          67.2113   92.2568   10.9278 C.ar    1  UNL1       -0.0034
@<TRIPOS>BOND
     1    21    22    1
     2    22    23    1
     3    23    24    1
     4    24    25    1
     5    25    28    1
     6    28    29   ar
     7    29    30   ar
     8    30    31   ar
     9    31    32    1
    10    31    33   ar
    11    33    34   ar
    12    25    26    1
    13    26    20    1
    14    20    19    1
    15    19     1    1
    16     1     2   ar
    17     2     3   ar
    18     3     4    1
    19     3     5   ar
    20     5     9    1
    21     9    10    2
    22     9    11    2
    23     9    12    1
    24    12    14    1
    25    14    15   ar
    26    15    16   ar
    27    16    17   ar
    28    17    18   ar
    29     5     6   ar
    30     6     7   ar
    31     7     8    1
    32    26    27    1
    33    27    22    1
    34    34    28   ar
    35     7     1   ar
    36    18    14   ar
    37    12    13    1
@<TRIPOS>MOLECULE
*****
 34 37 0 0 0
SMALL
GASTEIGER

@<TRIPOS>ATOM
      1 C          63.0231   88.6505   12.1128 C.ar    1  UNL1        0.1681
      2 C          63.8140   88.4837   13.3763 C.ar    1  UNL1        0.0702
      3 C          64.0515   87.1129   13.9370 C.ar    1  UNL1        0.1620
      4 F          64.8425   86.9461   15.2006 F       1  UNL1       -0.2026
      5 C          63.4980   85.9089   13.2342 C.ar    1  UNL1        0.1549
      6 C          62.7071   86.0757   11.9707 C.ar    1  UNL1        0.0553
      7 C          62.4696   87.4465   11.4100 C.ar    1  UNL1        0.1753
      8 F          61.6786   87.6133   10.1464 F       1  UNL1       -0.2009
      9 S          63.7355   84.5380   13.7950 S.O2    1  UNL1        0.0773
     10 O          62.9691   84.9103   15.0295 O.2     1  UNL1       -0.1498
     11 O          64.5019   84.1658   12.5605 O.2     1  UNL1       -0.1498
     12 N          63.9730   83.1672   14.3558 N.pl3   1  UNL1       -0.1925
     13 H          64.7693   82.9923   14.9075 H       1  UNL1        0.1758
     14 C          62.9971   82.0630   14.0758 C.ar    1  UNL1        0.1977
     15 N          61.5515   82.0414   14.4758 N.ar    1  UNL1       -0.1997
     16 C          60.9565   80.7516   13.9940 C.ar    1  UNL1        0.2082
     17 N          62.0342   79.9760   13.2961 N.ar    1  UNL1       -0.1840
     18 S          63.2954   80.7865   13.3467 S.2     1  UNL1        0.0508
     19 O          62.7856   90.0214   11.5521 O.3     1  UNL1       -0.4731
     20 C          63.8729   91.0531   11.6075 C.3     1  UNL1        0.2071
     21 C          63.7402   90.9324   16.8005 C.3     1  UNL1        0.0896
     22 N          64.3620   91.4266   15.5281 N.3     1  UNL1       -0.2714
     23 C          65.5392   92.3548   15.5798 C.3     1  UNL1        0.0725
     24 C          66.1610   92.8490   14.3073 C.3     1  UNL1        0.0218
     25 C          65.6056   92.4152   12.9833 C.3     1  UNL1        0.0287
     26 C          64.4284   91.4870   12.9316 C.3     1  UNL1        0.0638
     27 C          63.8066   90.9928   14.2040 C.3     1  UNL1        0.0761
     28 C          66.2274   92.9094   11.7108 C.ar    1  UNL1       -0.0222
     29 C          65.7960   94.2213   11.1254 C.ar    1  UNL1       -0.0034
     30 C          66.4178   94.7156    9.8530 C.ar    1  UNL1        0.0111
     31 C          67.4710   93.8980    9.1660 C.ar    1  UNL1        0.0577
     32 CL         68.0928   94.3922    7.8936 Cl      1  UNL1       -0.0822
     33 C          67.9025   92.5861    9.7514 C.ar    1  UNL1        0.0111
     34 C          67.2807   92.0918   11.0238 C.ar    1  UNL1       -0.0034
@<TRIPOS>BOND
     1    21    22    1
     2    22    23    1
     3    23    24    1
     4    24    25    1
     5    25    28    1
     6    28    29   ar
     7    29    30   ar
     8    30    31   ar
     9    31    32    1
    10    31    33   ar
    11    33    34   ar
    12    25    26    1
    13    26    20    1
    14    20    19    1
    15    19     1    1
    16     1     2   ar
    17     2     3   ar
    18     3     4    1
    19     3     5   ar
    20     5     9    1
    21     9    10    2
    22     9    11    2
    23     9    12    1
    24    12    14    1
    25    14    15   ar
    26    15    16   ar
    27    16    17   ar
    28    17    18   ar
    29     5     6   ar
    30     6     7   ar
    31     7     8    1
    32    26    27    1
    33    27    22    1
    34    34    28   ar
    35     7     1   ar
    36    18    14   ar
    37    12    13    1
@<TRIPOS>MOLECULE
*****
 34 37 0 0 0
SMALL
GASTEIGER

@<TRIPOS>ATOM
      1 C          62.2846   89.3053   11.3370 C.ar    1  UNL1        0.1681
      2 C          63.0821   89.1030   12.5912 C.ar    1  UNL1        0.0702
      3 C          64.1233   90.1072   12.9880 C.ar    1  UNL1        0.1620
      4 F          64.9209   89.9049   14.2423 F       1  UNL1       -0.2026
      5 C          64.3670   91.3137   12.1307 C.ar    1  UNL1        0.1549
      6 C          63.5695   91.5160   10.8765 C.ar    1  UNL1        0.0553
      7 C          62.5283   90.5118   10.4797 C.ar    1  UNL1        0.1753
      8 F          61.7308   90.7141    9.2254 F       1  UNL1       -0.2009
      9 S          65.4083   92.3179   12.5276 S.O2    1  UNL1        0.0773
     10 O          64.7782   92.4351   13.8838 O.2     1  UNL1       -0.1498
     11 O          66.0383   92.2007   11.1715 O.2     1  UNL1       -0.1498
     12 N          66.4494   93.3220   12.9246 N.pl3   1  UNL1       -0.1925
     13 H          66.5781   94.1365   12.3868 H       1  UNL1        0.1758
     14 C          67.2946   93.0851   14.1409 C.ar    1  UNL1        0.1977
     15 N          67.9487   94.1428   14.9798 N.ar    1  UNL1       -0.1997
     16 C          68.6924   93.4604   16.0893 C.ar    1  UNL1        0.2082
     17 N          68.4980   91.9809   15.9363 N.ar    1  UNL1       -0.1840
     18 S          67.6341   91.7490   14.7321 S.2     1  UNL1        0.0508
     19 O          61.2434   88.3011   10.9401 O.3     1  UNL1       -0.4731
     20 C          61.3045   86.9035   11.4812 C.3     1  UNL1        0.2071
     21 C          62.8401   84.5472    7.1120 C.3     1  UNL1        0.0896
     22 N          62.9062   84.6887    8.6038 N.3     1  UNL1       -0.2714
     23 C          63.8062   83.7935    9.4029 C.3     1  UNL1        0.0725
     24 C          63.8724   83.9350   10.8948 C.3     1  UNL1        0.0218
     25 C          63.0385   84.9717   11.5875 C.3     1  UNL1        0.0287
     26 C          62.1385   85.8668   10.7884 C.3     1  UNL1        0.0638
     27 C          62.0723   85.7253    9.2966 C.3     1  UNL1        0.0761
     28 C          63.1047   85.1131   13.0794 C.ar    1  UNL1       -0.0222
     29 C          62.2502   84.2441   13.9538 C.ar    1  UNL1       -0.0034
     30 C          62.3164   84.3855   15.4456 C.ar    1  UNL1        0.0111
     31 C          63.2370   85.3961   16.0631 C.ar    1  UNL1        0.0577
     32 CL         63.3031   85.5376   17.5549 Cl      1  UNL1       -0.0822
     33 C          64.0914   86.2652   15.1887 C.ar    1  UNL1        0.0111
     34 C          64.0252   86.1237   13.6968 C.ar    1  UNL1       -0.0034
@<TRIPOS>BOND
     1    21    22    1
     2    22    23    1
     3    23    24    1
     4    24    25    1
     5    25    28    1
     6    28    29   ar
     7    29    30   ar
     8    30    31   ar
     9    31    32    1
    10    31    33   ar
    11    33    34   ar
    12    25    26    1
    13    26    20    1
    14    20    19    1
    15    19     1    1
    16     1     2   ar
    17     2     3   ar
    18     3     4    1
    19     3     5   ar
    20     5     9    1
    21     9    10    2
    22     9    11    2
    23     9    12    1
    24    12    14    1
    25    14    15   ar
    26    15    16   ar
    27    16    17   ar
    28    17    18   ar
    29     5     6   ar
    30     6     7   ar
    31     7     8    1
    32    26    27    1
    33    27    22    1
    34    34    28   ar
    35     7     1   ar
    36    18    14   ar
    37    12    13    1
