@<TRIPOS>MOLECULE
*****
 31 33 0 0 0
SMALL
GASTEIGER

@<TRIPOS>ATOM
      1 C          61.6326   88.5211   11.2277 C.ar    1  UNL1        0.0577
      2 C          62.6573   88.4209   12.3185 C.ar    1  UNL1        0.0462
      3 C          63.6018   89.5594   12.5671 C.ar    1  UNL1        0.1602
      4 F          64.6265   89.4592   13.6579 F       1  UNL1       -0.2027
      5 C          63.5216   90.7981   11.7249 C.ar    1  UNL1        0.1534
      6 C          62.4968   90.8982   10.6341 C.ar    1  UNL1        0.0351
      7 C          61.5523   89.7597   10.3855 C.ar    1  UNL1        0.0722
      8 CL         60.5275   89.8599    9.2946 Cl      1  UNL1       -0.0809
      9 S          64.4660   91.9365   11.9735 S.O2    1  UNL1        0.0772
     10 O          64.8917   91.8973   10.5358 O.2     1  UNL1       -0.1498
     11 O          64.0403   91.9757   13.4113 O.2     1  UNL1       -0.1498
     12 N          65.4105   93.0750   12.2221 N.pl3   1  UNL1       -0.1936
     13 H          65.3887   93.8687   11.6401 H       1  UNL1        0.1758
     14 C          66.3882   93.0041   13.3575 C.ar    1  UNL1        0.1786
     15 N          66.4385   93.9297   14.5369 N.ar    1  UNL1       -0.2214
     16 C          67.5686   93.4929   15.4211 C.ar    1  UNL1        0.1079
     17 C          68.2169   92.2973   14.7882 C.ar    1  UNL1        0.0588
     18 S          67.4874   91.9953   13.5129 S.2     1  UNL1       -0.0497
     19 N          60.6880   87.3826   10.9791 N.pl3   1  UNL1       -0.3319
     20 H          59.8991   87.2627   11.5556 H       1  UNL1        0.1468
     21 C          60.9456   86.4269    9.8520 C.3     1  UNL1        0.0870
     22 C          62.3199   85.8619    9.6471 C.3     1  UNL1        0.0212
     23 N          64.2790   81.3949   13.1410 N.3     1  UNL1       -0.3222
     24 C          63.7893   82.5116   12.2675 C.3     1  UNL1        0.0508
     25 C          62.9071   83.5806   12.8410 C.3     1  UNL1        0.0155
     26 C          62.4173   84.6974   11.9675 C.3     1  UNL1        0.0014
     27 C          62.8097   84.7451   10.5205 C.3     1  UNL1        0.0018
     28 C          63.6919   83.6761    9.9471 C.3     1  UNL1        0.0014
     29 C          64.1817   82.5594   10.8206 C.3     1  UNL1        0.0155
     30 H          63.9183   81.5198   14.0869 H       1  UNL1        0.1188
     31 H          65.2988   81.4021   13.1624 H       1  UNL1        0.1188
@<TRIPOS>BOND
     1    24    23    1
     2    24    25    1
     3    25    26    1
     4    26    27    1
     5    27    22    1
     6    22    21    1
     7    21    19    1
     8    19     1    1
     9     1     2   ar
    10     2     3   ar
    11     3     4    1
    12     3     5   ar
    13     5     9    1
    14     9    10    2
    15     9    11    2
    16     9    12    1
    17    12    14    1
    18    14    15   ar
    19    15    16   ar
    20    16    17   ar
    21    17    18   ar
    22     5     6   ar
    23     6     7   ar
    24     7     8    1
    25    27    28    1
    26    28    29    1
    27    29    24    1
    28     7     1   ar
    29    18    14   ar
    30    23    30    1
    31    23    31    1
    32    19    20    1
    33    12    13    1
@<TRIPOS>MOLECULE
*****
 31 33 0 0 0
SMALL
GASTEIGER

@<TRIPOS>ATOM
      1 C          63.4608   89.2379   15.7007 C.ar    1  UNL1        0.0577
      2 C          63.1689   88.3753   16.8926 C.ar    1  UNL1        0.0462
      3 C          63.3417   86.8879   16.8023 C.ar    1  UNL1        0.1602
      4 F          63.0498   86.0253   17.9942 F       1  UNL1       -0.2027
      5 C          63.8064   86.2634   15.5201 C.ar    1  UNL1        0.1534
      6 C          64.0983   87.1261   14.3282 C.ar    1  UNL1        0.0351
      7 C          63.9255   88.6133   14.4185 C.ar    1  UNL1        0.0722
      8 CL         64.2174   89.4761   13.2266 Cl      1  UNL1       -0.0809
      9 S          63.9792   84.7761   15.4298 S.O2    1  UNL1        0.0772
     10 O          65.3864   84.9689   14.9476 O.2     1  UNL1       -0.1498
     11 O          62.5719   84.5834   15.9120 O.2     1  UNL1       -0.1498
     12 N          64.1519   83.2889   15.3395 N.pl3   1  UNL1       -0.1936
     13 H          64.6511   82.8080   16.0386 H       1  UNL1        0.1758
     14 C          63.5641   82.5343   14.1840 C.ar    1  UNL1        0.1786
     15 N          63.2062   81.0777   14.1727 N.ar    1  UNL1       -0.2214
     16 C          62.6519   80.7471   12.8186 C.ar    1  UNL1        0.1079
     17 C          62.6674   81.9994   11.9930 C.ar    1  UNL1        0.0588
     18 S          63.2311   83.1039   12.8369 S.2     1  UNL1       -0.0497
     19 N          63.2881   90.7253   15.7910 N.pl3   1  UNL1       -0.3319
     20 H          62.6777   91.1884   15.1727 H       1  UNL1        0.1468
     21 C          64.0452   91.5070   16.8233 C.3     1  UNL1        0.0870
     22 C          64.8549   92.7016   16.4146 C.3     1  UNL1        0.0212
     23 N          70.0137   91.9553   13.4431 N.3     1  UNL1       -0.3222
     24 C          68.7240   92.1419   14.1860 C.3     1  UNL1        0.0508
     25 C          68.7425   92.5163   15.6383 C.3     1  UNL1        0.0155
     26 C          67.4528   92.7029   16.3812 C.3     1  UNL1        0.0014
     27 C          66.1446   92.5150   15.6717 C.3     1  UNL1        0.0018
     28 C          66.1262   92.1406   14.2193 C.3     1  UNL1        0.0014
     29 C          67.4159   91.9540   13.4765 C.3     1  UNL1        0.0155
     30 H          70.7971   92.1211   14.0749 H       1  UNL1        0.1188
     31 H          70.0575   92.6154   12.6667 H       1  UNL1        0.1188
@<TRIPOS>BOND
     1    24    23    1
     2    24    25    1
     3    25    26    1
     4    26    27    1
     5    27    22    1
     6    22    21    1
     7    21    19    1
     8    19     1    1
     9     1     2   ar
    10     2     3   ar
    11     3     4    1
    12     3     5   ar
    13     5     9    1
    14     9    10    2
    15     9    11    2
    16     9    12    1
    17    12    14    1
    18    14    15   ar
    19    15    16   ar
    20    16    17   ar
    21    17    18   ar
    22     5     6   ar
    23     6     7   ar
    24     7     8    1
    25    27    28    1
    26    28    29    1
    27    29    24    1
    28     7     1   ar
    29    18    14   ar
    30    23    30    1
    31    23    31    1
    32    19    20    1
    33    12    13    1
@<TRIPOS>MOLECULE
*****
 31 33 0 0 0
SMALL
GASTEIGER

@<TRIPOS>ATOM
      1 C          62.2371   88.2590   10.9276 C.ar    1  UNL1        0.0577
      2 C          63.1166   88.3986   12.1346 C.ar    1  UNL1        0.0462
      3 C          63.4840   87.1869   12.9390 C.ar    1  UNL1        0.1602
      4 F          64.3635   87.3265   14.1461 F       1  UNL1       -0.2027
      5 C          62.9719   85.8358   12.5363 C.ar    1  UNL1        0.1534
      6 C          62.0924   85.6963   11.3292 C.ar    1  UNL1        0.0351
      7 C          61.7250   86.9079   10.5248 C.ar    1  UNL1        0.0722
      8 CL         60.8455   86.7684    9.3177 Cl      1  UNL1       -0.0809
      9 S          63.3393   84.6242   13.3406 S.O2    1  UNL1        0.0772
     10 O          64.1599   84.1119   12.1942 O.2     1  UNL1       -0.1498
     11 O          62.5188   85.1364   14.4870 O.2     1  UNL1       -0.1498
     12 N          63.7067   83.4126   14.1450 N.pl3   1  UNL1       -0.1936
     13 H          64.4618   83.4507   14.7755 H       1  UNL1        0.1758
     14 C          62.9236   82.1428   13.9886 C.ar    1  UNL1        0.1786
     15 N          61.5036   81.9239   14.4195 N.ar    1  UNL1       -0.2214
     16 C          61.1254   80.5148   14.0712 C.ar    1  UNL1        0.1079
     17 C          62.3117   79.8627   13.4249 C.ar    1  UNL1        0.0588
     18 S          63.4230   80.8689   13.3739 S.2     1  UNL1       -0.0497
     19 N          61.8697   89.4707   10.1232 N.pl3   1  UNL1       -0.3319
     20 H          61.4313   89.3661    9.2479 H       1  UNL1        0.1468
     21 C          62.1702   90.8416   10.6524 C.3     1  UNL1        0.0870
     22 C          63.3843   91.5810   10.1735 C.3     1  UNL1        0.0212
     23 N          67.9089   92.6873   13.9555 N.3     1  UNL1       -0.3222
     24 C          66.7778   92.4107   13.0100 C.3     1  UNL1        0.0508
     25 C          65.5073   91.7973   13.5195 C.3     1  UNL1        0.0155
     26 C          64.3761   91.5208   12.5740 C.3     1  UNL1        0.0014
     27 C          64.5154   91.8575   11.1190 C.3     1  UNL1        0.0018
     28 C          65.7859   92.4709   10.6095 C.3     1  UNL1        0.0014
     29 C          66.9171   92.7475   11.5550 C.3     1  UNL1        0.0155
     30 H          67.6435   92.3982   14.8970 H       1  UNL1        0.1188
     31 H          68.1181   93.6856   13.9526 H       1  UNL1        0.1188
@<TRIPOS>BOND
     1    24    23    1
     2    24    25    1
     3    25    26    1
     4    26    27    1
     5    27    22    1
     6    22    21    1
     7    21    19    1
     8    19     1    1
     9     1     2   ar
    10     2     3   ar
    11     3     4    1
    12     3     5   ar
    13     5     9    1
    14     9    10    2
    15     9    11    2
    16     9    12    1
    17    12    14    1
    18    14    15   ar
    19    15    16   ar
    20    16    17   ar
    21    17    18   ar
    22     5     6   ar
    23     6     7   ar
    24     7     8    1
    25    27    28    1
    26    28    29    1
    27    29    24    1
    28     7     1   ar
    29    18    14   ar
    30    23    30    1
    31    23    31    1
    32    19    20    1
    33    12    13    1
@<TRIPOS>MOLECULE
*****
 31 33 0 0 0
SMALL
GASTEIGER

@<TRIPOS>ATOM
      1 C          62.8162   89.4363   12.0177 C.ar    1  UNL1        0.0577
      2 C          62.7889   90.4223   10.8877 C.ar    1  UNL1        0.0462
      3 C          63.7781   91.5493   10.8516 C.ar    1  UNL1        0.1602
      4 F          63.7508   92.5354    9.7216 F       1  UNL1       -0.2027
      5 C          64.7946   91.6903   11.9456 C.ar    1  UNL1        0.1534
      6 C          64.8219   90.7042   13.0757 C.ar    1  UNL1        0.0351
      7 C          63.8327   89.5773   13.1117 C.ar    1  UNL1        0.0722
      8 CL         63.8599   88.5912   14.2417 Cl      1  UNL1       -0.0809
      9 S          65.7838   92.8173   11.9096 S.O2    1  UNL1        0.0772
     10 O          65.3526   93.2397   13.2827 O.2     1  UNL1       -0.1498
     11 O          66.2150   92.3949   10.5364 O.2     1  UNL1       -0.1498
     12 N          66.7730   93.9443   11.8736 N.pl3   1  UNL1       -0.1936
     13 H          67.4355   94.0410   12.5953 H       1  UNL1        0.1758
     14 C          66.7528   94.9240   10.7378 C.ar    1  UNL1        0.1786
     15 N          67.7952   95.0542    9.6671 N.ar    1  UNL1       -0.2214
     16 C          67.3733   96.1561    8.7410 C.ar    1  UNL1        0.1079
     17 C          66.0700   96.7070    9.2393 C.ar    1  UNL1        0.0588
     18 S          65.6866   95.9454   10.4734 S.2     1  UNL1       -0.0497
     19 N          61.8269   88.3092   12.0537 N.pl3   1  UNL1       -0.3319
     20 H          61.8959   87.6157   12.7491 H       1  UNL1        0.1468
     21 C          60.7326   88.2388   11.0303 C.3     1  UNL1        0.0870
     22 C          60.8260   87.2587    9.8987 C.3     1  UNL1        0.0212
     23 N          64.6166   82.6212   10.2515 N.3     1  UNL1       -0.3222
     24 C          63.6690   83.7805   10.1633 C.3     1  UNL1        0.0508
     25 C          63.5156   84.5273    8.8715 C.3     1  UNL1        0.0155
     26 C          62.5680   85.6867    8.7833 C.3     1  UNL1        0.0014
     27 C          61.7736   86.0993    9.9869 C.3     1  UNL1        0.0018
     28 C          61.9269   85.3525   11.2787 C.3     1  UNL1        0.0014
     29 C          62.8746   84.1932   11.3669 C.3     1  UNL1        0.0155
     30 H          65.0687   82.4821    9.3478 H       1  UNL1        0.1188
     31 H          64.1008   81.7791   10.5069 H       1  UNL1        0.1188
@<TRIPOS>BOND
     1    24    23    1
     2    24    25    1
     3    25    26    1
     4    26    27    1
     5    27    22    1
     6    22    21    1
     7    21    19    1
     8    19     1    1
     9     1     2   ar
    10     2     3   ar
    11     3     4    1
    12     3     5   ar
    13     5     9    1
    14     9    10    2
    15     9    11    2
    16     9    12    1
    17    12    14    1
    18    14    15   ar
    19    15    16   ar
    20    16    17   ar
    21    17    18   ar
    22     5     6   ar
    23     6     7   ar
    24     7     8    1
    25    27    28    1
    26    28    29    1
    27    29    24    1
    28     7     1   ar
    29    18    14   ar
    30    23    30    1
    31    23    31    1
    32    19    20    1
    33    12    13    1
@<TRIPOS>MOLECULE
*****
 31 33 0 0 0
SMALL
GASTEIGER

@<TRIPOS>ATOM
      1 C          63.5531   89.6214   13.0939 C.ar    1  UNL1        0.0577
      2 C          63.1436   88.4636   12.2327 C.ar    1  UNL1        0.0462
      3 C          63.3372   87.0591   12.7226 C.ar    1  UNL1        0.1602
      4 F          62.9278   85.9012   11.8614 F       1  UNL1       -0.2027
      5 C          63.9403   86.8125   14.0737 C.ar    1  UNL1        0.1534
      6 C          64.3498   87.9705   14.9349 C.ar    1  UNL1        0.0351
      7 C          64.1562   89.3749   14.4450 C.ar    1  UNL1        0.0722
      8 CL         64.5656   90.5328   15.3062 Cl      1  UNL1       -0.0809
      9 S          64.1340   85.4081   14.5636 S.O2    1  UNL1        0.0772
     10 O          65.6208   85.6049   14.5402 O.2     1  UNL1       -0.1498
     11 O          62.6472   85.2113   14.5871 O.2     1  UNL1       -0.1498
     12 N          64.3276   84.0037   15.0536 N.pl3   1  UNL1       -0.1936
     13 H          64.8625   83.8339   15.8625 H       1  UNL1        0.1758
     14 C          63.7062   82.8579   14.3111 C.ar    1  UNL1        0.1786
     15 N          62.6016   81.9766   14.8141 N.ar    1  UNL1       -0.2214
     16 C          62.2931   80.9664   13.7491 C.ar    1  UNL1        0.1079
     17 C          63.2071   81.2234   12.5878 C.ar    1  UNL1        0.0588
     18 S          64.0804   82.3924   12.9351 S.2     1  UNL1       -0.0497
     19 N          63.3595   91.0260   12.6040 N.pl3   1  UNL1       -0.3319
     20 H          62.5973   91.5592   12.9266 H       1  UNL1        0.1468
     21 C          64.3271   91.6180   11.6225 C.3     1  UNL1        0.0870
     22 C          65.4463   92.4915   12.1066 C.3     1  UNL1        0.0212
     23 N          67.9843   96.4541    8.3842 N.3     1  UNL1       -0.3222
     24 C          67.3498   95.4634    9.3148 C.3     1  UNL1        0.0508
     25 C          66.5105   95.9429   10.4618 C.3     1  UNL1        0.0155
     26 C          65.8760   94.9522   11.3924 C.3     1  UNL1        0.0014
     27 C          66.0808   93.4821   11.1760 C.3     1  UNL1        0.0018
     28 C          66.9201   93.0027   10.0290 C.3     1  UNL1        0.0014
     29 C          67.5546   93.9933    9.0984 C.3     1  UNL1        0.0155
     30 H          67.7417   97.4002    8.6779 H       1  UNL1        0.1188
     31 H          67.6450   96.2950    7.4355 H       1  UNL1        0.1188
@<TRIPOS>BOND
     1    24    23    1
     2    24    25    1
     3    25    26    1
     4    26    27    1
     5    27    22    1
     6    22    21    1
     7    21    19    1
     8    19     1    1
     9     1     2   ar
    10     2     3   ar
    11     3     4    1
    12     3     5   ar
    13     5     9    1
    14     9    10    2
    15     9    11    2
    16     9    12    1
    17    12    14    1
    18    14    15   ar
    19    15    16   ar
    20    16    17   ar
    21    17    18   ar
    22     5     6   ar
    23     6     7   ar
    24     7     8    1
    25    27    28    1
    26    28    29    1
    27    29    24    1
    28     7     1   ar
    29    18    14   ar
    30    23    30    1
    31    23    31    1
    32    19    20    1
    33    12    13    1
@<TRIPOS>MOLECULE
*****
 31 33 0 0 0
SMALL
GASTEIGER

@<TRIPOS>ATOM
      1 C          61.7326   88.5735   11.3448 C.ar    1  UNL1        0.0577
      2 C          62.7630   88.4855   12.4312 C.ar    1  UNL1        0.0462
      3 C          63.7067   89.6280   12.6643 C.ar    1  UNL1        0.1602
      4 F          64.7370   89.5400   13.7508 F       1  UNL1       -0.2027
      5 C          63.6199   90.8584   11.8108 C.ar    1  UNL1        0.1534
      6 C          62.5894   90.9464   10.7242 C.ar    1  UNL1        0.0351
      7 C          61.6458   89.8039   10.4912 C.ar    1  UNL1        0.0722
      8 CL         60.6153   89.8919    9.4047 Cl      1  UNL1       -0.0809
      9 S          64.5635   92.0009   12.0437 S.O2    1  UNL1        0.0772
     10 O          64.2260   91.9816   13.5051 O.2     1  UNL1       -0.1498
     11 O          64.9010   92.0202   10.5824 O.2     1  UNL1       -0.1498
     12 N          65.5071   93.1434   12.2767 N.pl3   1  UNL1       -0.1936
     13 H          65.5714   93.5546   13.1689 H       1  UNL1        0.1758
     14 C          66.3528   93.6593   11.1503 C.ar    1  UNL1        0.1786
     15 N          67.5275   92.9571   10.5365 N.ar    1  UNL1       -0.2214
     16 C          68.0729   93.8319    9.4469 C.ar    1  UNL1        0.1079
     17 C          67.2352   95.0748    9.3872 C.ar    1  UNL1        0.0588
     18 S          66.1721   94.9681   10.4400 S.2     1  UNL1       -0.0497
     19 N          60.7889   87.4310   11.1117 N.pl3   1  UNL1       -0.3319
     20 H          59.9983   87.3201   11.6879 H       1  UNL1        0.1468
     21 C          61.0498   86.4574   10.0008 C.3     1  UNL1        0.0870
     22 C          62.4182   85.8689    9.8252 C.3     1  UNL1        0.0212
     23 N          64.1665   81.2651   13.2527 N.3     1  UNL1       -0.3222
     24 C          63.7295   82.4160   12.3958 C.3     1  UNL1        0.0508
     25 C          62.9054   83.5210   12.9874 C.3     1  UNL1        0.0155
     26 C          62.4683   84.6719   12.1305 C.3     1  UNL1        0.0014
     27 C          62.8553   84.7180   10.6821 C.3     1  UNL1        0.0018
     28 C          63.6793   83.6130   10.0905 C.3     1  UNL1        0.0014
     29 C          64.1164   82.4620   10.9474 C.3     1  UNL1        0.0155
     30 H          63.8173   81.3961   14.2021 H       1  UNL1        0.1188
     31 H          65.1854   81.2205   13.2684 H       1  UNL1        0.1188
@<TRIPOS>BOND
     1    24    23    1
     2    24    25    1
     3    25    26    1
     4    26    27    1
     5    27    22    1
     6    22    21    1
     7    21    19    1
     8    19     1    1
     9     1     2   ar
    10     2     3   ar
    11     3     4    1
    12     3     5   ar
    13     5     9    1
    14     9    10    2
    15     9    11    2
    16     9    12    1
    17    12    14    1
    18    14    15   ar
    19    15    16   ar
    20    16    17   ar
    21    17    18   ar
    22     5     6   ar
    23     6     7   ar
    24     7     8    1
    25    27    28    1
    26    28    29    1
    27    29    24    1
    28     7     1   ar
    29    18    14   ar
    30    23    30    1
    31    23    31    1
    32    19    20    1
    33    12    13    1
@<TRIPOS>MOLECULE
*****
 31 33 0 0 0
SMALL
GASTEIGER

@<TRIPOS>ATOM
      1 C          64.2377   90.1208   13.7050 C.ar    1  UNL1        0.0577
      2 C          63.5785   90.9802   12.6673 C.ar    1  UNL1        0.0462
      3 C          62.6936   90.3566   11.6289 C.ar    1  UNL1        0.1602
      4 F          62.0344   91.2159   10.5911 F       1  UNL1       -0.2027
      5 C          62.4680   88.8736   11.6283 C.ar    1  UNL1        0.1534
      6 C          63.1273   88.0143   12.6661 C.ar    1  UNL1        0.0351
      7 C          64.0121   88.6379   13.7044 C.ar    1  UNL1        0.0722
      8 CL         64.6714   87.7786   14.7422 Cl      1  UNL1       -0.0809
      9 S          61.5833   88.2500   10.5899 S.O2    1  UNL1        0.0772
     10 O          60.8753   87.4729   11.6599 O.2     1  UNL1       -0.1498
     11 O          62.2912   89.0271    9.5200 O.2     1  UNL1       -0.1498
     12 N          60.6985   87.6264    9.5516 N.pl3   1  UNL1       -0.1936
     13 H          59.7633   87.9203    9.4608 H       1  UNL1        0.1758
     14 C          61.2386   86.5549    8.6514 C.ar    1  UNL1        0.1786
     15 N          62.6080   85.9474    8.7269 N.ar    1  UNL1       -0.2214
     16 C          62.7198   84.9198    7.6399 C.ar    1  UNL1        0.1079
     17 C          61.4194   84.8922    6.8926 C.ar    1  UNL1        0.0588
     18 S          60.5040   85.9027    7.5177 S.2     1  UNL1       -0.0497
     19 N          65.1225   90.7444   14.7435 N.pl3   1  UNL1       -0.3319
     20 H          65.2062   90.3296   15.6324 H       1  UNL1        0.1468
     21 C          65.8799   92.0000   14.4275 C.3     1  UNL1        0.0870
     22 C          67.0268   91.9611   13.4615 C.3     1  UNL1        0.0212
     23 N          66.7372   95.0635    8.3340 N.3     1  UNL1       -0.3222
     24 C          66.8096   94.2879    9.6159 C.3     1  UNL1        0.0508
     25 C          67.5823   93.0036    9.6728 C.3     1  UNL1        0.0155
     26 C          67.6547   92.2280   10.9547 C.3     1  UNL1        0.0014
     27 C          66.9544   92.7367   12.1797 C.3     1  UNL1        0.0018
     28 C          66.1816   94.0211   12.1228 C.3     1  UNL1        0.0014
     29 C          66.1092   94.7967   10.8409 C.3     1  UNL1        0.0155
     30 H          67.2660   94.5756    7.6111 H       1  UNL1        0.1188
     31 H          67.1330   95.9928    8.4761 H       1  UNL1        0.1188
@<TRIPOS>BOND
     1    24    23    1
     2    24    25    1
     3    25    26    1
     4    26    27    1
     5    27    22    1
     6    22    21    1
     7    21    19    1
     8    19     1    1
     9     1     2   ar
    10     2     3   ar
    11     3     4    1
    12     3     5   ar
    13     5     9    1
    14     9    10    2
    15     9    11    2
    16     9    12    1
    17    12    14    1
    18    14    15   ar
    19    15    16   ar
    20    16    17   ar
    21    17    18   ar
    22     5     6   ar
    23     6     7   ar
    24     7     8    1
    25    27    28    1
    26    28    29    1
    27    29    24    1
    28     7     1   ar
    29    18    14   ar
    30    23    30    1
    31    23    31    1
    32    19    20    1
    33    12    13    1
@<TRIPOS>MOLECULE
*****
 31 33 0 0 0
SMALL
GASTEIGER

@<TRIPOS>ATOM
      1 C          63.6949   89.8377   13.1056 C.ar    1  UNL1        0.0577
      2 C          63.2472   88.6651   12.2843 C.ar    1  UNL1        0.0462
      3 C          63.3746   87.2740   12.8311 C.ar    1  UNL1        0.1602
      4 F          62.9268   86.1014   12.0099 F       1  UNL1       -0.2027
      5 C          63.9497   87.0557   14.1992 C.ar    1  UNL1        0.1534
      6 C          64.3974   88.2284   15.0205 C.ar    1  UNL1        0.0351
      7 C          64.2700   89.6194   14.4736 C.ar    1  UNL1        0.0722
      8 CL         64.7177   90.7921   15.2949 Cl      1  UNL1       -0.0809
      9 S          64.0771   85.6648   14.7460 S.O2    1  UNL1        0.0772
     10 O          62.9683   85.9448   15.7166 O.2     1  UNL1       -0.1498
     11 O          65.1859   85.3848   13.7754 O.2     1  UNL1       -0.1498
     12 N          64.2045   84.2739   15.2928 N.pl3   1  UNL1       -0.1936
     13 H          64.6841   84.1195   16.1386 H       1  UNL1        0.1758
     14 C          63.6011   83.1181   14.5510 C.ar    1  UNL1        0.1786
     15 N          64.3040   82.2486   13.5511 N.ar    1  UNL1       -0.2214
     16 C          63.3262   81.2221   13.0610 C.ar    1  UNL1        0.1079
     17 C          62.0189   81.4573   13.7580 C.ar    1  UNL1        0.0588
     18 S          62.1888   82.6291   14.6788 S.2     1  UNL1       -0.0497
     19 N          63.5675   91.2287   12.5588 N.pl3   1  UNL1       -0.3319
     20 H          63.0459   91.9045   13.0491 H       1  UNL1        0.1468
     21 C          64.2349   91.5900   11.2649 C.3     1  UNL1        0.0870
     22 C          65.3839   92.5541   11.2574 C.3     1  UNL1        0.0212
     23 N          69.0721   92.8633   15.9798 N.3     1  UNL1       -0.3222
     24 C          68.1501   92.7860   14.7992 C.3     1  UNL1        0.0508
     25 C          66.9675   93.7044   14.7097 C.3     1  UNL1        0.0155
     26 C          66.0455   93.6271   13.5291 C.3     1  UNL1        0.0014
     27 C          66.3060   92.6314   12.4380 C.3     1  UNL1        0.0018
     28 C          67.4885   91.7130   12.5274 C.3     1  UNL1        0.0014
     29 C          68.4106   91.7903   13.7080 C.3     1  UNL1        0.0155
     30 H          68.7470   93.5893   16.6182 H       1  UNL1        0.1188
     31 H          70.0146   93.0880   15.6610 H       1  UNL1        0.1188
@<TRIPOS>BOND
     1    24    23    1
     2    24    25    1
     3    25    26    1
     4    26    27    1
     5    27    22    1
     6    22    21    1
     7    21    19    1
     8    19     1    1
     9     1     2   ar
    10     2     3   ar
    11     3     4    1
    12     3     5   ar
    13     5     9    1
    14     9    10    2
    15     9    11    2
    16     9    12    1
    17    12    14    1
    18    14    15   ar
    19    15    16   ar
    20    16    17   ar
    21    17    18   ar
    22     5     6   ar
    23     6     7   ar
    24     7     8    1
    25    27    28    1
    26    28    29    1
    27    29    24    1
    28     7     1   ar
    29    18    14   ar
    30    23    30    1
    31    23    31    1
    32    19    20    1
    33    12    13    1
@<TRIPOS>MOLECULE
*****
 31 33 0 0 0
SMALL
GASTEIGER

@<TRIPOS>ATOM
      1 C          63.5407   88.6556   12.6686 C.ar    1  UNL1        0.0577
      2 C          64.1762   88.4225   14.0072 C.ar    1  UNL1        0.0462
      3 C          64.2389   87.0361   14.5765 C.ar    1  UNL1        0.1602
      4 F          64.8744   86.8031   15.9150 F       1  UNL1       -0.2027
      5 C          63.6662   85.8828   13.8071 C.ar    1  UNL1        0.1534
      6 C          63.0307   86.1159   12.4685 C.ar    1  UNL1        0.0351
      7 C          62.9679   87.5023   11.8993 C.ar    1  UNL1        0.0722
      8 CL         62.3324   87.7354   10.5606 Cl      1  UNL1       -0.0809
      9 S          63.7289   84.4965   14.3764 S.O2    1  UNL1        0.0772
     10 O          62.3256   84.6421   14.8856 O.2     1  UNL1       -0.1498
     11 O          65.1323   84.3509   13.8671 O.2     1  UNL1       -0.1498
     12 N          63.7917   83.1101   14.9456 N.pl3   1  UNL1       -0.1936
     13 H          64.2912   82.9415   15.7770 H       1  UNL1        0.1758
     14 C          63.0933   81.9806   14.2480 C.ar    1  UNL1        0.1786
     15 N          61.7553   81.4104   14.6148 N.ar    1  UNL1       -0.2214
     16 C          61.4455   80.3004   13.6547 C.ar    1  UNL1        0.1079
     17 C          62.5921   80.1846   12.6944 C.ar    1  UNL1        0.0588
     18 S          63.6105   81.2230   13.0611 S.2     1  UNL1       -0.0497
     19 N          63.4779   90.0420   12.0993 N.pl3   1  UNL1       -0.3319
     20 H          63.2104   90.1774   11.1616 H       1  UNL1        0.1468
     21 C          63.8227   91.2220   12.9588 C.3     1  UNL1        0.0870
     22 C          65.2433   91.6950   13.0483 C.3     1  UNL1        0.0212
     23 N          67.1869   96.0581    9.4171 N.3     1  UNL1       -0.3222
     24 C          66.7010   94.9674   10.3249 C.3     1  UNL1        0.0508
     25 C          66.5325   95.2318   11.7917 C.3     1  UNL1        0.0155
     26 C          66.0466   94.1411   12.6995 C.3     1  UNL1        0.0014
     27 C          65.7292   92.7858   12.1405 C.3     1  UNL1        0.0018
     28 C          65.8977   92.5213   10.6737 C.3     1  UNL1        0.0014
     29 C          66.3836   93.6121    9.7659 C.3     1  UNL1        0.0155
     30 H          67.3522   96.9049    9.9612 H       1  UNL1        0.1188
     31 H          66.4830   96.2448    8.7029 H       1  UNL1        0.1188
@<TRIPOS>BOND
     1    24    23    1
     2    24    25    1
     3    25    26    1
     4    26    27    1
     5    27    22    1
     6    22    21    1
     7    21    19    1
     8    19     1    1
     9     1     2   ar
    10     2     3   ar
    11     3     4    1
    12     3     5   ar
    13     5     9    1
    14     9    10    2
    15     9    11    2
    16     9    12    1
    17    12    14    1
    18    14    15   ar
    19    15    16   ar
    20    16    17   ar
    21    17    18   ar
    22     5     6   ar
    23     6     7   ar
    24     7     8    1
    25    27    28    1
    26    28    29    1
    27    29    24    1
    28     7     1   ar
    29    18    14   ar
    30    23    30    1
    31    23    31    1
    32    19    20    1
    33    12    13    1
