@<TRIPOS>MOLECULE
*****
 37 40 0 0 0
SMALL
GASTEIGER

@<TRIPOS>ATOM
      1 C          58.9879   90.3188    5.8261 C.ar    1  UNL1        0.0528
      2 C          58.0579   91.2479    5.1037 C.ar    1  UNL1        0.0161
      3 C          58.5830   92.1411    4.0191 C.ar    1  UNL1        0.0181
      4 C          60.0381   92.1053    3.6568 C.ar    1  UNL1        0.0757
      5 C          60.9682   91.1762    4.3791 C.ar    1  UNL1        0.1545
      6 F          62.4233   91.1403    4.0169 F       1  UNL1       -0.2028
      7 C          60.4431   90.2830    5.4638 C.ar    1  UNL1        0.0456
      8 N          60.5632   92.9985    2.5721 N.pl3   1  UNL1       -0.3057
      9 C          60.4975   94.4887    2.7303 C.3     1  UNL1        0.0922
     10 C          61.0226   95.3818    1.6456 C.3     1  UNL1        0.0374
     11 C          61.6134   94.7848    0.4028 C.3     1  UNL1        0.0610
     12 C          61.6791   93.2947    0.2447 C.3     1  UNL1        0.0374
     13 C          61.1540   92.4015    1.3293 C.3     1  UNL1        0.0922
     14 N          62.1384   95.6781   -0.6819 N.3     1  UNL1       -0.2726
     15 C          61.2048   96.2251   -1.7206 C.3     1  UNL1        0.0896
     16 C          63.5972   96.0242   -0.7278 C.3     1  UNL1        0.0747
     17 C          64.6240   94.9348   -0.8220 C.3     1  UNL1        0.0490
     18 C          65.2201   94.3561    0.4269 C.3     1  UNL1        0.1386
     19 O          65.7575   92.9557    0.4222 O.3     1  UNL1       -0.3819
     20 H          65.0289   92.3302    0.2853 H       1  UNL1        0.2104
     21 N          58.4628   89.4256    6.9107 N.pl3   1  UNL1       -0.2825
     22 H          57.4949   89.3790    7.0844 H       1  UNL1        0.1551
     23 C          62.2613   86.1373   10.1907 C.3     1  UNL1        0.0342
     24 C          61.3117   86.9594    9.3707 C.ar    1  UNL1        0.0152
     25 C          60.4133   86.2931    8.3713 C.ar    1  UNL1        0.0990
     26 N          59.4636   87.1152    7.5513 N.ar    1  UNL1       -0.2123
     27 C          59.4125   88.6035    7.7307 C.ar    1  UNL1        0.2207
     28 N          60.3109   89.2698    8.7301 N.ar    1  UNL1       -0.2138
     29 C          61.2605   88.4477    9.5501 C.ar    1  UNL1        0.0847
     30 C          62.1590   89.1140   10.5496 C.ar    1  UNL1        0.0571
     31 C          62.7519   90.4862   10.4251 C.ar    1  UNL1        0.1231
     32 N          63.5816   90.7453   11.6475 N.ar    1  UNL1       -0.1677
     33 N          63.5015   89.5332   12.5276 N.ar    1  UNL1       -0.2513
     34 C          62.6223   88.5250   11.8490 C.ar    1  UNL1        0.0980
     35 C          64.1813   89.3597   13.8534 C.3     1  UNL1        0.1054
     36 C          64.8259   90.5358   14.5253 C.3     1  UNL1        0.0263
     37 C          64.2166   88.0102   14.5073 C.3     1  UNL1        0.0263
@<TRIPOS>BOND
     1    23    24    1
     2    24    25   ar
     3    25    26   ar
     4    26    27   ar
     5    27    21    1
     6    21     1    1
     7     1     2   ar
     8     2     3   ar
     9     3     4   ar
    10     4     8    1
    11     8     9    1
    12     9    10    1
    13    10    11    1
    14    11    14    1
    15    14    15    1
    16    14    16    1
    17    16    17    1
    18    17    18    1
    19    18    19    1
    20    11    12    1
    21    12    13    1
    22     4     5   ar
    23     5     6    1
    24     5     7   ar
    25    27    28   ar
    26    28    29   ar
    27    29    30    1
    28    30    31   ar
    29    31    32   ar
    30    32    33   ar
    31    33    35    1
    32    35    36    1
    33    35    37    1
    34    33    34   ar
    35    29    24   ar
    36    34    30   ar
    37     7     1   ar
    38    13     8    1
    39    21    22    1
    40    19    20    1
@<TRIPOS>MOLECULE
*****
 37 40 0 0 0
SMALL
GASTEIGER

@<TRIPOS>ATOM
      1 C          63.9089   88.4650   14.9703 C.ar    1  UNL1        0.0528
      2 C          64.6963   89.5854   15.5824 C.ar    1  UNL1        0.0161
      3 C          65.0750   90.7765   14.7530 C.ar    1  UNL1        0.0181
      4 C          64.6663   90.8472   13.3115 C.ar    1  UNL1        0.0757
      5 C          63.8789   89.7268   12.6994 C.ar    1  UNL1        0.1545
      6 F          63.4703   89.7975   11.2578 F       1  UNL1       -0.2028
      7 C          63.5002   88.5357   13.5287 C.ar    1  UNL1        0.0456
      8 N          65.0451   92.0383   12.4821 N.pl3   1  UNL1       -0.3057
      9 C          65.8782   93.1336   13.0791 C.3     1  UNL1        0.0922
     10 C          66.2569   94.3246   12.2497 C.3     1  UNL1        0.0374
     11 C          65.8025   94.4205   10.8234 C.3     1  UNL1        0.0610
     12 C          64.9694   93.3252   10.2264 C.3     1  UNL1        0.0374
     13 C          64.5907   92.1342   11.0558 C.3     1  UNL1        0.0922
     14 N          66.1813   95.6116    9.9940 N.3     1  UNL1       -0.2726
     15 C          65.3399   96.8527   10.0357 C.3     1  UNL1        0.0896
     16 C          67.4015   95.5616    9.1230 C.3     1  UNL1        0.0747
     17 C          67.6593   94.3610    8.2616 C.3     1  UNL1        0.0490
     18 C          68.2985   93.1385    8.8507 C.3     1  UNL1        0.1386
     19 O          69.4561   93.2782    9.7943 O.3     1  UNL1       -0.3819
     20 H          70.2175   93.6466    9.3196 H       1  UNL1        0.2104
     21 N          63.5301   87.2739   15.7996 N.pl3   1  UNL1       -0.2825
     22 H          63.4587   87.3580   16.7780 H       1  UNL1        0.1551
     23 C          62.4504   81.9976   13.1550 C.3     1  UNL1        0.0342
     24 C          62.7203   83.3167   13.8162 C.ar    1  UNL1        0.0152
     25 C          62.6766   83.4291   15.3113 C.ar    1  UNL1        0.0990
     26 N          62.9465   84.7482   15.9724 N.ar    1  UNL1       -0.2123
     27 C          63.2602   85.9548   15.1385 C.ar    1  UNL1        0.2207
     28 N          63.3039   85.8424   13.6434 N.ar    1  UNL1       -0.2138
     29 C          63.0340   84.5233   12.9822 C.ar    1  UNL1        0.0847
     30 C          63.0777   84.4109   11.4870 C.ar    1  UNL1        0.0571
     31 C          63.9844   83.5150   10.6963 C.ar    1  UNL1        0.1231
     32 N          63.6894   83.7251    9.2407 N.ar    1  UNL1       -0.1677
     33 N          62.6004   84.7510    9.1318 N.ar    1  UNL1       -0.2513
     34 C          62.2224   85.1748   10.5201 C.ar    1  UNL1        0.0980
     35 C          61.9957   85.2630    7.8582 C.3     1  UNL1        0.1054
     36 C          60.8612   86.2430    7.9076 C.3     1  UNL1        0.0263
     37 C          62.5255   84.7951    6.5351 C.3     1  UNL1        0.0263
@<TRIPOS>BOND
     1    23    24    1
     2    24    25   ar
     3    25    26   ar
     4    26    27   ar
     5    27    21    1
     6    21     1    1
     7     1     2   ar
     8     2     3   ar
     9     3     4   ar
    10     4     8    1
    11     8     9    1
    12     9    10    1
    13    10    11    1
    14    11    14    1
    15    14    15    1
    16    14    16    1
    17    16    17    1
    18    17    18    1
    19    18    19    1
    20    11    12    1
    21    12    13    1
    22     4     5   ar
    23     5     6    1
    24     5     7   ar
    25    27    28   ar
    26    28    29   ar
    27    29    30    1
    28    30    31   ar
    29    31    32   ar
    30    32    33   ar
    31    33    35    1
    32    35    36    1
    33    35    37    1
    34    33    34   ar
    35    29    24   ar
    36    34    30   ar
    37     7     1   ar
    38    13     8    1
    39    21    22    1
    40    19    20    1
@<TRIPOS>MOLECULE
*****
 37 40 0 0 0
SMALL
GASTEIGER

@<TRIPOS>ATOM
      1 C          59.4846   90.9196    5.2004 C.ar    1  UNL1        0.0528
      2 C          58.8826   92.0148    4.3708 C.ar    1  UNL1        0.0161
      3 C          59.7229   92.7393    3.3613 C.ar    1  UNL1        0.0181
      4 C          61.1652   92.3685    3.1814 C.ar    1  UNL1        0.0757
      5 C          61.7672   91.2734    4.0109 C.ar    1  UNL1        0.1545
      6 F          63.2094   90.9026    3.8310 F       1  UNL1       -0.2028
      7 C          60.9269   90.5489    5.0205 C.ar    1  UNL1        0.0456
      8 N          62.0055   93.0930    2.1718 N.pl3   1  UNL1       -0.3057
      9 C          63.4777   92.8190    2.0862 C.3     1  UNL1        0.0922
     10 C          64.3179   93.5435    1.0767 C.3     1  UNL1        0.0374
     11 C          63.6859   94.5419    0.1528 C.3     1  UNL1        0.0610
     12 C          62.2136   94.8159    0.2384 C.3     1  UNL1        0.0374
     13 C          61.3734   94.0915    1.2479 C.3     1  UNL1        0.0922
     14 N          64.5262   95.2664   -0.8567 N.3     1  UNL1       -0.2726
     15 C          65.6276   96.1769   -0.4009 C.3     1  UNL1        0.0896
     16 C          64.2650   95.0803   -2.3220 C.3     1  UNL1        0.0747
     17 C          63.6668   93.7982   -2.8203 C.3     1  UNL1        0.0490
     18 C          64.1886   93.1654   -4.0762 C.3     1  UNL1        0.1386
     19 O          65.1542   92.0205   -3.9939 O.3     1  UNL1       -0.3819
     20 H          65.9892   92.3289   -3.6085 H       1  UNL1        0.2104
     21 N          58.6443   90.1952    6.2099 N.pl3   1  UNL1       -0.2825
     22 H          57.6766   90.3690    6.2605 H       1  UNL1        0.1551
     23 C          61.1807   86.2384    9.9396 C.3     1  UNL1        0.0342
     24 C          60.5466   87.2276    9.0071 C.ar    1  UNL1        0.0152
     25 C          59.9821   86.7671    7.6960 C.ar    1  UNL1        0.0990
     26 N          59.3480   87.7563    6.7636 N.ar    1  UNL1       -0.2123
     27 C          59.2784   89.2060    7.1423 C.ar    1  UNL1        0.2207
     28 N          59.8429   89.6665    8.4535 N.ar    1  UNL1       -0.2138
     29 C          60.4770   88.6773    9.3859 C.ar    1  UNL1        0.0847
     30 C          61.0416   89.1379   10.6971 C.ar    1  UNL1        0.0571
     31 C          60.2623   89.3834   11.9550 C.ar    1  UNL1        0.1231
     32 N          61.2236   89.8311   13.0159 N.ar    1  UNL1       -0.1677
     33 N          62.5971   89.8622   12.4136 N.ar    1  UNL1       -0.2513
     34 C          62.4846   89.4338   10.9805 C.ar    1  UNL1        0.0980
     35 C          63.8611   90.2531   13.1204 C.3     1  UNL1        0.1054
     36 C          64.4373   89.3576   14.1768 C.3     1  UNL1        0.0263
     37 C          64.5489   91.5394   12.7706 C.3     1  UNL1        0.0263
@<TRIPOS>BOND
     1    23    24    1
     2    24    25   ar
     3    25    26   ar
     4    26    27   ar
     5    27    21    1
     6    21     1    1
     7     1     2   ar
     8     2     3   ar
     9     3     4   ar
    10     4     8    1
    11     8     9    1
    12     9    10    1
    13    10    11    1
    14    11    14    1
    15    14    15    1
    16    14    16    1
    17    16    17    1
    18    17    18    1
    19    18    19    1
    20    11    12    1
    21    12    13    1
    22     4     5   ar
    23     5     6    1
    24     5     7   ar
    25    27    28   ar
    26    28    29   ar
    27    29    30    1
    28    30    31   ar
    29    31    32   ar
    30    32    33   ar
    31    33    35    1
    32    35    36    1
    33    35    37    1
    34    33    34   ar
    35    29    24   ar
    36    34    30   ar
    37     7     1   ar
    38    13     8    1
    39    21    22    1
    40    19    20    1
@<TRIPOS>MOLECULE
*****
 37 40 0 0 0
SMALL
GASTEIGER

@<TRIPOS>ATOM
      1 C          59.1430   90.5095    5.5838 C.ar    1  UNL1        0.0528
      2 C          58.2921   91.4883    4.8301 C.ar    1  UNL1        0.0161
      3 C          58.9128   92.3828    3.7984 C.ar    1  UNL1        0.0181
      4 C          60.3844   92.2987    3.5204 C.ar    1  UNL1        0.0757
      5 C          61.2353   91.3200    4.2740 C.ar    1  UNL1        0.1545
      6 F          62.7069   91.2358    3.9960 F       1  UNL1       -0.2028
      7 C          60.6146   90.4253    5.3058 C.ar    1  UNL1        0.0456
      8 N          61.0051   93.1933    2.4886 N.pl3   1  UNL1       -0.3057
      9 C          60.3396   94.4855    2.1183 C.3     1  UNL1        0.0922
     10 C          60.9603   95.3801    1.0867 C.3     1  UNL1        0.0374
     11 C          62.2466   94.9824    0.4252 C.3     1  UNL1        0.0610
     12 C          62.9121   93.6902    0.7955 C.3     1  UNL1        0.0374
     13 C          62.2914   92.7956    1.8272 C.3     1  UNL1        0.0922
     14 N          62.8673   95.8770   -0.6065 N.3     1  UNL1       -0.2726
     15 C          64.0812   96.6884   -0.2631 C.3     1  UNL1        0.0896
     16 C          62.2740   95.9603   -1.9817 C.3     1  UNL1        0.0747
     17 C          61.9913   94.7057   -2.7537 C.3     1  UNL1        0.0490
     18 C          63.1257   93.8767   -3.2790 C.3     1  UNL1        0.1386
     19 O          64.3291   93.6223   -2.4205 O.3     1  UNL1       -0.3819
     20 H          64.7971   94.4574   -2.2643 H       1  UNL1        0.2104
     21 N          58.5223   89.6149    6.6155 N.pl3   1  UNL1       -0.2825
     22 H          57.5427   89.5348    6.6723 H       1  UNL1        0.1551
     23 C          62.0093   86.5247   10.3958 C.3     1  UNL1        0.0342
     24 C          61.1376   87.2973    9.4508 C.ar    1  UNL1        0.0152
     25 C          60.3418   86.5752    8.4042 C.ar    1  UNL1        0.0990
     26 N          59.4700   87.3478    7.4591 N.ar    1  UNL1       -0.2123
     27 C          59.3940   88.8424    7.5606 C.ar    1  UNL1        0.2207
     28 N          60.1899   89.5644    8.6071 N.ar    1  UNL1       -0.2138
     29 C          61.0616   88.7919    9.5522 C.ar    1  UNL1        0.0847
     30 C          61.8575   89.5140   10.5988 C.ar    1  UNL1        0.0571
     31 C          61.5962   89.4931   12.0756 C.ar    1  UNL1        0.1231
     32 N          62.6315   90.3500   12.7418 N.ar    1  UNL1       -0.1677
     33 N          63.5328   90.9005   11.6765 N.ar    1  UNL1       -0.2513
     34 C          63.0544   90.3838   10.3521 C.ar    1  UNL1        0.0980
     35 C          64.7064   91.8083   11.8970 C.3     1  UNL1        0.1054
     36 C          65.3718   91.8609   13.2403 C.3     1  UNL1        0.0263
     37 C          65.2145   92.6634   10.7743 C.3     1  UNL1        0.0263
@<TRIPOS>BOND
     1    23    24    1
     2    24    25   ar
     3    25    26   ar
     4    26    27   ar
     5    27    21    1
     6    21     1    1
     7     1     2   ar
     8     2     3   ar
     9     3     4   ar
    10     4     8    1
    11     8     9    1
    12     9    10    1
    13    10    11    1
    14    11    14    1
    15    14    15    1
    16    14    16    1
    17    16    17    1
    18    17    18    1
    19    18    19    1
    20    11    12    1
    21    12    13    1
    22     4     5   ar
    23     5     6    1
    24     5     7   ar
    25    27    28   ar
    26    28    29   ar
    27    29    30    1
    28    30    31   ar
    29    31    32   ar
    30    32    33   ar
    31    33    35    1
    32    35    36    1
    33    35    37    1
    34    33    34   ar
    35    29    24   ar
    36    34    30   ar
    37     7     1   ar
    38    13     8    1
    39    21    22    1
    40    19    20    1
@<TRIPOS>MOLECULE
*****
 37 40 0 0 0
SMALL
GASTEIGER

@<TRIPOS>ATOM
      1 C          59.2752   90.2563    5.9328 C.ar    1  UNL1        0.0528
      2 C          58.2369   91.1204    5.2805 C.ar    1  UNL1        0.0161
      3 C          58.6259   92.0529    4.1719 C.ar    1  UNL1        0.0181
      4 C          60.0532   92.1214    3.7156 C.ar    1  UNL1        0.0757
      5 C          61.0914   91.2573    4.3678 C.ar    1  UNL1        0.1545
      6 F          62.5186   91.3258    3.9114 F       1  UNL1       -0.2028
      7 C          60.7024   90.3248    5.4765 C.ar    1  UNL1        0.0456
      8 N          60.4422   93.0540    2.6069 N.pl3   1  UNL1       -0.3057
      9 C          60.2204   94.5299    2.7559 C.3     1  UNL1        0.0922
     10 C          60.6093   95.4624    1.6472 C.3     1  UNL1        0.0374
     11 C          61.2201   94.9189    0.3896 C.3     1  UNL1        0.0610
     12 C          61.4419   93.4430    0.2407 C.3     1  UNL1        0.0374
     13 C          61.0530   92.5105    1.3493 C.3     1  UNL1        0.0922
     14 N          61.6091   95.8515   -0.7190 N.3     1  UNL1       -0.2726
     15 C          60.7536   95.9553   -1.9467 C.3     1  UNL1        0.0896
     16 C          62.8537   96.6803   -0.5999 C.3     1  UNL1        0.0747
     17 C          64.0197   96.1724    0.1952 C.3     1  UNL1        0.0490
     18 C          64.8795   95.0724   -0.3532 C.3     1  UNL1        0.1386
     19 O          64.4297   94.2983   -1.5567 O.3     1  UNL1       -0.3819
     20 H          63.6353   93.7880   -1.3346 H       1  UNL1        0.2104
     21 N          58.8861   89.3238    7.0414 N.pl3   1  UNL1       -0.2825
     22 H          58.0212   88.8547    7.0093 H       1  UNL1        0.1551
     23 C          62.6014   88.4526   11.6715 C.3     1  UNL1        0.0342
     24 C          61.6726   88.6704   10.5140 C.ar    1  UNL1        0.0152
     25 C          60.9594   89.9810   10.3610 C.ar    1  UNL1        0.0990
     26 N          60.0305   90.1988    9.2035 N.ar    1  UNL1       -0.2123
     27 C          59.8150   89.1060    8.1990 C.ar    1  UNL1        0.2207
     28 N          60.5282   87.7953    8.3519 N.ar    1  UNL1       -0.2138
     29 C          61.4570   87.5775    9.5095 C.ar    1  UNL1        0.0847
     30 C          62.1703   86.2668    9.6624 C.ar    1  UNL1        0.0571
     31 C          62.9082   85.5333    8.5820 C.ar    1  UNL1        0.1231
     32 N          63.4648   84.2727    9.1745 N.ar    1  UNL1       -0.1677
     33 N          63.0708   84.2271   10.6211 N.ar    1  UNL1       -0.2513
     34 C          62.2707   85.4595   10.9226 C.ar    1  UNL1        0.0980
     35 C          63.4162   83.1399   11.5952 C.3     1  UNL1        0.1054
     36 C          63.0830   81.7128   11.2754 C.3     1  UNL1        0.0263
     37 C          64.0948   83.4799   12.8890 C.3     1  UNL1        0.0263
@<TRIPOS>BOND
     1    23    24    1
     2    24    25   ar
     3    25    26   ar
     4    26    27   ar
     5    27    21    1
     6    21     1    1
     7     1     2   ar
     8     2     3   ar
     9     3     4   ar
    10     4     8    1
    11     8     9    1
    12     9    10    1
    13    10    11    1
    14    11    14    1
    15    14    15    1
    16    14    16    1
    17    16    17    1
    18    17    18    1
    19    18    19    1
    20    11    12    1
    21    12    13    1
    22     4     5   ar
    23     5     6    1
    24     5     7   ar
    25    27    28   ar
    26    28    29   ar
    27    29    30    1
    28    30    31   ar
    29    31    32   ar
    30    32    33   ar
    31    33    35    1
    32    35    36    1
    33    35    37    1
    34    33    34   ar
    35    29    24   ar
    36    34    30   ar
    37     7     1   ar
    38    13     8    1
    39    21    22    1
    40    19    20    1
@<TRIPOS>MOLECULE
*****
 37 40 0 0 0
SMALL
GASTEIGER

@<TRIPOS>ATOM
      1 C          63.5855   89.3770   15.4254 C.ar    1  UNL1        0.0528
      2 C          63.5312   88.1599   16.3005 C.ar    1  UNL1        0.0161
      3 C          63.4614   86.7947   15.6831 C.ar    1  UNL1        0.0181
      4 C          63.4460   86.6466   14.1905 C.ar    1  UNL1        0.0757
      5 C          63.5003   87.8636   13.3154 C.ar    1  UNL1        0.1545
      6 F          63.4848   87.7154   11.8228 F       1  UNL1       -0.2028
      7 C          63.5700   89.2289   13.9328 C.ar    1  UNL1        0.0456
      8 N          63.3762   85.2813   13.5730 N.pl3   1  UNL1       -0.3057
      9 C          62.3668   84.9934   12.5015 C.3     1  UNL1        0.0922
     10 C          62.2971   83.6282   11.8841 C.3     1  UNL1        0.0374
     11 C          63.2368   82.5508   12.3382 C.3     1  UNL1        0.0610
     12 C          64.2462   82.8386   13.4098 C.3     1  UNL1        0.0374
     13 C          64.3159   84.2039   14.0272 C.3     1  UNL1        0.0922
     14 N          63.1671   81.1855   11.7208 N.3     1  UNL1       -0.2726
     15 C          63.5299   80.9955   10.2778 C.3     1  UNL1        0.0896
     16 C          62.7345   80.0102   12.5464 C.3     1  UNL1        0.0747
     17 C          62.1844   80.2241   13.9253 C.3     1  UNL1        0.0490
     18 C          60.9300   81.0241   14.1167 C.3     1  UNL1        0.1386
     19 O          59.6439   80.3321   14.4586 O.3     1  UNL1       -0.3819
     20 H          59.3689   79.7746   13.7140 H       1  UNL1        0.2104
     21 N          63.6552   90.7422   16.0429 N.pl3   1  UNL1       -0.2825
     22 H          62.9307   91.0535   16.6324 H       1  UNL1        0.1551
     23 C          68.3495   94.3064   14.9203 C.3     1  UNL1        0.0342
     24 C          67.1760   93.4153   15.2010 C.ar    1  UNL1        0.0152
     25 C          66.8560   93.0185   16.6117 C.ar    1  UNL1        0.0990
     26 N          65.6824   92.1275   16.8923 N.ar    1  UNL1       -0.2123
     27 C          64.8288   91.6333   15.7623 C.ar    1  UNL1        0.2207
     28 N          65.1488   92.0301   14.3516 N.ar    1  UNL1       -0.2138
     29 C          66.3224   92.9211   14.0709 C.ar    1  UNL1        0.0847
     30 C          66.6424   93.3179   12.6601 C.ar    1  UNL1        0.0571
     31 C          67.4298   92.5078   11.6734 C.ar    1  UNL1        0.1231
     32 N          67.5051   93.2837   10.3919 N.ar    1  UNL1       -0.1677
     33 N          66.7643   94.5734   10.5866 N.ar    1  UNL1       -0.2513
     34 C          66.2311   94.5945   11.9885 C.ar    1  UNL1        0.0980
     35 C          66.5877   95.6525    9.5598 C.3     1  UNL1        0.1054
     36 C          67.2500   95.5282    8.2197 C.3     1  UNL1        0.0263
     37 C          65.7487   96.8558    9.8730 C.3     1  UNL1        0.0263
@<TRIPOS>BOND
     1    23    24    1
     2    24    25   ar
     3    25    26   ar
     4    26    27   ar
     5    27    21    1
     6    21     1    1
     7     1     2   ar
     8     2     3   ar
     9     3     4   ar
    10     4     8    1
    11     8     9    1
    12     9    10    1
    13    10    11    1
    14    11    14    1
    15    14    15    1
    16    14    16    1
    17    16    17    1
    18    17    18    1
    19    18    19    1
    20    11    12    1
    21    12    13    1
    22     4     5   ar
    23     5     6    1
    24     5     7   ar
    25    27    28   ar
    26    28    29   ar
    27    29    30    1
    28    30    31   ar
    29    31    32   ar
    30    32    33   ar
    31    33    35    1
    32    35    36    1
    33    35    37    1
    34    33    34   ar
    35    29    24   ar
    36    34    30   ar
    37     7     1   ar
    38    13     8    1
    39    21    22    1
    40    19    20    1
@<TRIPOS>MOLECULE
*****
 37 40 0 0 0
SMALL
GASTEIGER

@<TRIPOS>ATOM
      1 C          59.7279   89.6593    6.8948 C.ar    1  UNL1        0.0528
      2 C          60.4751   90.1447    8.1016 C.ar    1  UNL1        0.0161
      3 C          61.0361   89.1589    9.0830 C.ar    1  UNL1        0.0181
      4 C          60.8500   87.6876    8.8578 C.ar    1  UNL1        0.0757
      5 C          60.1029   87.2021    7.6512 C.ar    1  UNL1        0.1545
      6 F          59.9169   85.7309    7.4260 F       1  UNL1       -0.2028
      7 C          59.5418   88.1880    6.6696 C.ar    1  UNL1        0.0456
      8 N          61.4112   86.7017    9.8394 N.pl3   1  UNL1       -0.3057
      9 C          62.3035   85.5942    9.3630 C.3     1  UNL1        0.0922
     10 C          62.8646   84.6084   10.3445 C.3     1  UNL1        0.0374
     11 C          62.5333   84.7302   11.8024 C.3     1  UNL1        0.0610
     12 C          61.6409   85.8377   12.2788 C.3     1  UNL1        0.0374
     13 C          61.0799   86.8235   11.2972 C.3     1  UNL1        0.0922
     14 N          63.0944   83.7444   12.7839 N.3     1  UNL1       -0.2726
     15 C          63.0821   84.0568   14.2510 C.3     1  UNL1        0.0896
     16 C          63.6678   82.4461   12.2984 C.3     1  UNL1        0.0747
     17 C          62.7987   81.2263   12.2167 C.3     1  UNL1        0.0490
     18 C          62.5166   80.4223   13.4512 C.3     1  UNL1        0.1386
     19 O          62.0366   81.1052   14.6975 O.3     1  UNL1       -0.3819
     20 H          62.7354   81.6854   15.0379 H       1  UNL1        0.2104
     21 N          59.1668   90.6451    5.9134 N.pl3   1  UNL1       -0.2825
     22 H          58.2207   90.9115    5.9696 H       1  UNL1        0.1551
     23 C          62.6884   92.9647    1.6451 C.3     1  UNL1        0.0342
     24 C          61.8080   92.3848    2.7122 C.ar    1  UNL1        0.0152
     25 C          62.3837   91.4480    3.7324 C.ar    1  UNL1        0.0990
     26 N          61.5033   90.8681    4.7995 N.ar    1  UNL1       -0.2123
     27 C          60.0472   91.2250    4.8463 C.ar    1  UNL1        0.2207
     28 N          59.4714   92.1617    3.8261 N.ar    1  UNL1       -0.2138
     29 C          60.3518   92.7416    2.7590 C.ar    1  UNL1        0.0847
     30 C          59.7760   93.6784    1.7387 C.ar    1  UNL1        0.0571
     31 C          59.9872   95.1625    1.6858 C.ar    1  UNL1        0.1231
     32 N          59.2296   95.6968    0.5066 N.ar    1  UNL1       -0.1677
     33 N          58.5501   94.5429   -0.1693 N.ar    1  UNL1       -0.2513
     34 C          58.8878   93.2955    0.5922 C.ar    1  UNL1        0.0980
     35 C          57.6849   94.6225   -1.3920 C.3     1  UNL1        0.1054
     36 C          56.4611   95.4898   -1.3896 C.3     1  UNL1        0.0263
     37 C          58.0434   93.8348   -2.6171 C.3     1  UNL1        0.0263
@<TRIPOS>BOND
     1    23    24    1
     2    24    25   ar
     3    25    26   ar
     4    26    27   ar
     5    27    21    1
     6    21     1    1
     7     1     2   ar
     8     2     3   ar
     9     3     4   ar
    10     4     8    1
    11     8     9    1
    12     9    10    1
    13    10    11    1
    14    11    14    1
    15    14    15    1
    16    14    16    1
    17    16    17    1
    18    17    18    1
    19    18    19    1
    20    11    12    1
    21    12    13    1
    22     4     5   ar
    23     5     6    1
    24     5     7   ar
    25    27    28   ar
    26    28    29   ar
    27    29    30    1
    28    30    31   ar
    29    31    32   ar
    30    32    33   ar
    31    33    35    1
    32    35    36    1
    33    35    37    1
    34    33    34   ar
    35    29    24   ar
    36    34    30   ar
    37     7     1   ar
    38    13     8    1
    39    21    22    1
    40    19    20    1
@<TRIPOS>MOLECULE
*****
 37 40 0 0 0
SMALL
GASTEIGER

@<TRIPOS>ATOM
      1 C          59.6193   90.9542    5.2968 C.ar    1  UNL1        0.0528
      2 C          61.0717   90.6239    5.1186 C.ar    1  UNL1        0.0161
      3 C          61.8542   91.2584    4.0072 C.ar    1  UNL1        0.0181
      4 C          61.1844   92.2231    3.0741 C.ar    1  UNL1        0.0757
      5 C          59.7321   92.5534    3.2524 C.ar    1  UNL1        0.1545
      6 F          59.0624   93.5181    2.3193 F       1  UNL1       -0.2028
      7 C          58.9496   91.9189    4.3637 C.ar    1  UNL1        0.0456
      8 N          61.9670   92.8577    1.9628 N.pl3   1  UNL1       -0.3057
      9 C          61.3341   93.0544    0.6172 C.3     1  UNL1        0.0922
     10 C          62.1167   93.6888   -0.4941 C.3     1  UNL1        0.0374
     11 C          63.5322   94.1266   -0.2598 C.3     1  UNL1        0.0610
     12 C          64.1650   93.9299    1.0859 C.3     1  UNL1        0.0374
     13 C          63.3824   93.2954    2.1971 C.3     1  UNL1        0.0922
     14 N          64.3147   94.7611   -1.3711 N.3     1  UNL1       -0.2726
     15 C          65.2119   95.9287   -1.0851 C.3     1  UNL1        0.0896
     16 C          64.2001   94.2280   -2.7685 C.3     1  UNL1        0.0747
     17 C          64.6337   95.0711   -3.9308 C.3     1  UNL1        0.0490
     18 C          63.6131   95.6075   -4.8904 C.3     1  UNL1        0.1386
     19 O          63.0357   94.7141   -5.9480 O.3     1  UNL1       -0.3819
     20 H          63.7320   94.4635   -6.5750 H       1  UNL1        0.2104
     21 N          58.8368   90.3197    6.4081 N.pl3   1  UNL1       -0.2825
     22 H          57.8785   90.5199    6.5121 H       1  UNL1        0.1551
     23 C          61.5471   86.5614   10.2200 C.3     1  UNL1        0.0342
     24 C          60.8695   87.5010    9.2670 C.ar    1  UNL1        0.0152
     25 C          59.9237   86.9670    8.2325 C.ar    1  UNL1        0.0990
     26 N          59.2461   87.9066    7.2796 N.ar    1  UNL1       -0.2123
     27 C          59.5144   89.3801    7.3611 C.ar    1  UNL1        0.2207
     28 N          60.4602   89.9141    8.3956 N.ar    1  UNL1       -0.2138
     29 C          61.1378   88.9745    9.3485 C.ar    1  UNL1        0.0847
     30 C          62.0837   89.5085   10.3831 C.ar    1  UNL1        0.0571
     31 C          62.8972   90.7636   10.2698 C.ar    1  UNL1        0.1231
     32 N          63.6984   90.9120   11.5292 N.ar    1  UNL1       -0.1677
     33 N          63.3800   89.7485   12.4209 N.ar    1  UNL1       -0.2513
     34 C          62.3821   88.8811   11.7125 C.ar    1  UNL1        0.0980
     35 C          63.9580   89.4967   13.7819 C.3     1  UNL1        0.1054
     36 C          64.1614   88.0901   14.2618 C.3     1  UNL1        0.0263
     37 C          64.3327   90.6513   14.6630 C.3     1  UNL1        0.0263
@<TRIPOS>BOND
     1    23    24    1
     2    24    25   ar
     3    25    26   ar
     4    26    27   ar
     5    27    21    1
     6    21     1    1
     7     1     2   ar
     8     2     3   ar
     9     3     4   ar
    10     4     8    1
    11     8     9    1
    12     9    10    1
    13    10    11    1
    14    11    14    1
    15    14    15    1
    16    14    16    1
    17    16    17    1
    18    17    18    1
    19    18    19    1
    20    11    12    1
    21    12    13    1
    22     4     5   ar
    23     5     6    1
    24     5     7   ar
    25    27    28   ar
    26    28    29   ar
    27    29    30    1
    28    30    31   ar
    29    31    32   ar
    30    32    33   ar
    31    33    35    1
    32    35    36    1
    33    35    37    1
    34    33    34   ar
    35    29    24   ar
    36    34    30   ar
    37     7     1   ar
    38    13     8    1
    39    21    22    1
    40    19    20    1
@<TRIPOS>MOLECULE
*****
 37 40 0 0 0
SMALL
GASTEIGER

@<TRIPOS>ATOM
      1 C          59.0562   89.8467    6.2016 C.ar    1  UNL1        0.0528
      2 C          60.4288   90.1721    5.6915 C.ar    1  UNL1        0.0161
      3 C          60.6042   91.2007    4.6139 C.ar    1  UNL1        0.0181
      4 C          59.4069   91.9039    4.0464 C.ar    1  UNL1        0.0757
      5 C          58.0344   91.5786    4.5565 C.ar    1  UNL1        0.1545
      6 F          56.8372   92.2819    3.9889 F       1  UNL1       -0.2028
      7 C          57.8590   90.5500    5.6341 C.ar    1  UNL1        0.0456
      8 N          59.5823   92.9326    2.9688 N.pl3   1  UNL1       -0.3057
      9 C          59.1699   92.6214    1.5606 C.3     1  UNL1        0.0922
     10 C          59.3453   93.6500    0.4830 C.3     1  UNL1        0.0374
     11 C          59.9331   94.9898    0.8137 C.3     1  UNL1        0.0610
     12 C          60.3455   95.3010    2.2219 C.3     1  UNL1        0.0374
     13 C          60.1701   94.2724    3.2994 C.3     1  UNL1        0.0922
     14 N          60.1085   96.0185   -0.2640 N.3     1  UNL1       -0.2726
     15 C          58.9093   96.5708   -0.9759 C.3     1  UNL1        0.0896
     16 C          61.4831   96.4947   -0.6296 C.3     1  UNL1        0.0747
     17 C          62.5158   95.5143   -1.1011 C.3     1  UNL1        0.0490
     18 C          62.1114   94.3559   -1.9640 C.3     1  UNL1        0.1386
     19 O          60.9409   94.4853   -2.8930 O.3     1  UNL1       -0.3819
     20 H          60.1278   94.5937   -2.3754 H       1  UNL1        0.2104
     21 N          58.8809   88.8181    7.2792 N.pl3   1  UNL1       -0.2825
     22 H          58.1061   88.2111    7.2589 H       1  UNL1        0.1551
     23 C          62.9017   88.4030   11.7132 C.3     1  UNL1        0.0342
     24 C          61.8965   88.5068   10.6047 C.ar    1  UNL1        0.0152
     25 C          61.2088   89.8124   10.3357 C.ar    1  UNL1        0.0990
     26 N          60.2036   89.9161    9.2272 N.ar    1  UNL1       -0.2123
     27 C          59.8861   88.7143    8.3877 C.ar    1  UNL1        0.2207
     28 N          60.5739   87.4087    8.6567 N.ar    1  UNL1       -0.2138
     29 C          61.5791   87.3050    9.7652 C.ar    1  UNL1        0.0847
     30 C          62.2668   85.9993   10.0341 C.ar    1  UNL1        0.0571
     31 C          63.0512   85.1948    9.0404 C.ar    1  UNL1        0.1231
     32 N          63.5601   83.9672    9.7362 N.ar    1  UNL1       -0.1677
     33 N          63.0901   84.0130   11.1600 N.ar    1  UNL1       -0.2513
     34 C          62.2909   85.2689   11.3441 C.ar    1  UNL1        0.0980
     35 C          63.3703   82.9837   12.2145 C.3     1  UNL1        0.1054
     36 C          64.2396   83.3287   13.3872 C.3     1  UNL1        0.0263
     37 C          62.7811   81.6093   12.0963 C.3     1  UNL1        0.0263
@<TRIPOS>BOND
     1    23    24    1
     2    24    25   ar
     3    25    26   ar
     4    26    27   ar
     5    27    21    1
     6    21     1    1
     7     1     2   ar
     8     2     3   ar
     9     3     4   ar
    10     4     8    1
    11     8     9    1
    12     9    10    1
    13    10    11    1
    14    11    14    1
    15    14    15    1
    16    14    16    1
    17    16    17    1
    18    17    18    1
    19    18    19    1
    20    11    12    1
    21    12    13    1
    22     4     5   ar
    23     5     6    1
    24     5     7   ar
    25    27    28   ar
    26    28    29   ar
    27    29    30    1
    28    30    31   ar
    29    31    32   ar
    30    32    33   ar
    31    33    35    1
    32    35    36    1
    33    35    37    1
    34    33    34   ar
    35    29    24   ar
    36    34    30   ar
    37     7     1   ar
    38    13     8    1
    39    21    22    1
    40    19    20    1
