@<TRIPOS>MOLECULE
*****
 29 31 0 0 0
SMALL
GASTEIGER

@<TRIPOS>ATOM
      1 N          61.2685   89.5687    9.7405 N.pl3   1  UNL1       -0.3375
      2 C          62.2655   89.9803   10.7829 C.ar    1  UNL1        0.1568
      3 N          62.5615   89.2476   12.0579 N.ar    1  UNL1       -0.2242
      4 C          63.6205   90.0113   12.7964 C.ar    1  UNL1        0.0967
      5 C          64.3046   89.7654   14.1084 C.ar    1  UNL1        0.0747
      6 C          65.3473   90.7242   14.6019 C.ar    1  UNL1        0.0458
      7 C          65.7058   91.9289   13.7833 C.ar    1  UNL1        0.1682
      8 O          66.7485   92.8877   14.2768 O.3     1  UNL1       -0.5029
      9 C          65.0216   92.1748   12.4712 C.ar    1  UNL1        0.1751
     10 O          65.3802   93.3796   11.6527 O.3     1  UNL1       -0.5025
     11 C          63.9790   91.2160   11.9778 C.ar    1  UNL1        0.0865
     12 S          63.1416   91.1969   10.7334 S.2     1  UNL1       -0.0488
     13 H          60.7376   88.7489    9.8637 H       1  UNL1        0.1442
     14 H          61.1451   90.1184    8.9332 H       1  UNL1        0.1442
     15 H          67.1759   92.7341   15.0964 H       1  UNL1        0.2923
     16 H          66.0315   93.9785   11.9609 H       1  UNL1        0.2923
     17 C          63.9461   88.5606   14.9269 C.2     1  UNL1        0.2477
     18 O          63.2122   88.7268   16.2245 O.2     1  UNL1       -0.2701
     19 N          64.3215   87.1896   14.4479 N.am    1  UNL1       -0.2969
     20 H          64.8032   87.0805   13.5962 H       1  UNL1        0.1501
     21 C          63.9630   85.9848   15.2664 C.3     1  UNL1        0.1166
     22 C          63.6158   84.6931   14.5876 C.ar    1  UNL1       -0.0017
     23 C          62.6471   83.7449   15.2300 C.ar    1  UNL1       -0.0017
     24 C          62.3000   82.4532   14.5511 C.ar    1  UNL1        0.0120
     25 C          62.9215   82.1096   13.2299 C.ar    1  UNL1        0.0682
     26 CL         62.5744   80.8178   12.5510 Cl      1  UNL1       -0.0814
     27 C          63.8902   83.0577   12.5875 C.ar    1  UNL1        0.0679
     28 CL         64.5118   82.7142   11.2663 Cl      1  UNL1       -0.0814
     29 C          64.2374   84.3495   13.2664 C.ar    1  UNL1        0.0096
@<TRIPOS>BOND
     1     1     2    1
     2     2     3   ar
     3     3     4   ar
     4     4     5   ar
     5     5    17    1
     6    17    18    2
     7    17    19   am
     8    19    21    1
     9    21    22    1
    10    22    23   ar
    11    23    24   ar
    12    24    25   ar
    13    25    26    1
    14    25    27   ar
    15    27    28    1
    16    27    29   ar
    17     5     6   ar
    18     6     7   ar
    19     7     8    1
    20     7     9   ar
    21     9    10    1
    22     9    11   ar
    23    11    12   ar
    24    12     2   ar
    25    11     4   ar
    26    29    22   ar
    27     1    13    1
    28     1    14    1
    29    19    20    1
    30     8    15    1
    31    10    16    1
@<TRIPOS>MOLECULE
*****
 29 31 0 0 0
SMALL
GASTEIGER

@<TRIPOS>ATOM
      1 N          63.1283   89.5305   16.8367 N.pl3   1  UNL1       -0.3375
      2 C          63.4904   90.1120   15.5023 C.ar    1  UNL1        0.1568
      3 N          62.7918   89.8400   14.2031 N.ar    1  UNL1       -0.2242
      4 C          63.4842   90.6275   13.1306 C.ar    1  UNL1        0.0967
      5 C          63.2344   90.7517   11.6568 C.ar    1  UNL1        0.0747
      6 C          64.1113   91.6347   10.8192 C.ar    1  UNL1        0.0458
      7 C          65.2379   92.3936   11.4555 C.ar    1  UNL1        0.1682
      8 O          66.1147   93.2766   10.6181 O.3     1  UNL1       -0.5029
      9 C          65.4876   92.2694   12.9294 C.ar    1  UNL1        0.1751
     10 O          66.6142   93.0282   13.5658 O.3     1  UNL1       -0.5025
     11 C          64.6108   91.3864   13.7669 C.ar    1  UNL1        0.0865
     12 S          64.6146   91.0678   15.2327 S.2     1  UNL1       -0.0488
     13 H          62.3692   88.9084   16.9130 H       1  UNL1        0.1442
     14 H          63.6499   89.7710   17.6363 H       1  UNL1        0.1442
     15 H          65.9587   93.3542    9.6974 H       1  UNL1        0.2923
     16 H          67.1620   93.5798   13.0426 H       1  UNL1        0.2923
     17 C          62.1078   89.9928   11.0204 C.2     1  UNL1        0.2477
     18 O          61.6325   90.3670    9.6479 O.2     1  UNL1       -0.2701
     19 N          61.4566   88.8597   11.7567 N.am    1  UNL1       -0.2969
     20 H          61.7686   88.6141   12.6576 H       1  UNL1        0.1501
     21 C          60.3300   88.1009   11.1204 C.3     1  UNL1        0.1166
     22 C          60.5898   87.2385    9.9209 C.ar    1  UNL1       -0.0017
     23 C          59.5556   87.1254    8.8404 C.ar    1  UNL1       -0.0017
     24 C          59.8153   86.2630    7.6409 C.ar    1  UNL1        0.0120
     25 C          61.1094   85.5138    7.5218 C.ar    1  UNL1        0.0682
     26 CL         61.3692   84.6515    6.3223 Cl      1  UNL1       -0.0814
     27 C          62.1437   85.6270    8.6023 C.ar    1  UNL1        0.0679
     28 CL         63.4377   84.8778    8.4834 Cl      1  UNL1       -0.0814
     29 C          61.8838   86.4894    9.8019 C.ar    1  UNL1        0.0096
@<TRIPOS>BOND
     1     1     2    1
     2     2     3   ar
     3     3     4   ar
     4     4     5   ar
     5     5    17    1
     6    17    18    2
     7    17    19   am
     8    19    21    1
     9    21    22    1
    10    22    23   ar
    11    23    24   ar
    12    24    25   ar
    13    25    26    1
    14    25    27   ar
    15    27    28    1
    16    27    29   ar
    17     5     6   ar
    18     6     7   ar
    19     7     8    1
    20     7     9   ar
    21     9    10    1
    22     9    11   ar
    23    11    12   ar
    24    12     2   ar
    25    11     4   ar
    26    29    22   ar
    27     1    13    1
    28     1    14    1
    29    19    20    1
    30     8    15    1
    31    10    16    1
@<TRIPOS>MOLECULE
*****
 29 31 0 0 0
SMALL
GASTEIGER

@<TRIPOS>ATOM
      1 N          67.8281   93.2515   15.6274 N.pl3   1  UNL1       -0.3375
      2 C          66.8166   92.6710   14.6842 C.ar    1  UNL1        0.1568
      3 N          65.9687   91.4597   14.9368 N.ar    1  UNL1       -0.2242
      4 C          65.1034   91.2399   13.7314 C.ar    1  UNL1        0.0967
      5 C          64.0709   90.1994   13.4134 C.ar    1  UNL1        0.0747
      6 C          63.3513   90.2344   12.0976 C.ar    1  UNL1        0.0458
      7 C          63.6644   91.3099   11.1000 C.ar    1  UNL1        0.1682
      8 O          62.9449   91.3449    9.7843 O.3     1  UNL1       -0.5029
      9 C          64.6970   92.3504   11.4181 C.ar    1  UNL1        0.1751
     10 O          65.0101   93.4259   10.4204 O.3     1  UNL1       -0.5025
     11 C          65.4165   92.3154   12.7338 C.ar    1  UNL1        0.0865
     12 S          66.4753   93.1998   13.3226 S.2     1  UNL1       -0.0488
     13 H          67.9821   92.8307   16.5040 H       1  UNL1        0.1442
     14 H          68.3380   94.0534   15.3699 H       1  UNL1        0.1442
     15 H          62.2999   90.6949    9.5856 H       1  UNL1        0.2923
     16 H          64.5606   93.4477    9.5986 H       1  UNL1        0.2923
     17 C          63.7578   89.1239   14.4110 C.2     1  UNL1        0.2477
     18 O          62.8964   89.4314   15.5998 O.2     1  UNL1       -0.2701
     19 N          64.3062   87.7409   14.2198 N.am    1  UNL1       -0.2969
     20 H          64.8716   87.5390   13.4395 H       1  UNL1        0.1501
     21 C          63.9932   86.6654   15.2174 C.3     1  UNL1        0.1166
     22 C          63.6607   85.2802   14.7476 C.ar    1  UNL1       -0.0017
     23 C          62.7387   84.4154   15.5551 C.ar    1  UNL1       -0.0017
     24 C          62.4062   83.0303   15.0852 C.ar    1  UNL1        0.0120
     25 C          62.9957   82.5099   13.8077 C.ar    1  UNL1        0.0682
     26 CL         62.6632   81.1248   13.3378 Cl      1  UNL1       -0.0814
     27 C          63.9176   83.3748   13.0002 C.ar    1  UNL1        0.0679
     28 CL         64.5071   82.8545   11.7228 Cl      1  UNL1       -0.0814
     29 C          64.2501   84.7600   13.4702 C.ar    1  UNL1        0.0096
@<TRIPOS>BOND
     1     1     2    1
     2     2     3   ar
     3     3     4   ar
     4     4     5   ar
     5     5    17    1
     6    17    18    2
     7    17    19   am
     8    19    21    1
     9    21    22    1
    10    22    23   ar
    11    23    24   ar
    12    24    25   ar
    13    25    26    1
    14    25    27   ar
    15    27    28    1
    16    27    29   ar
    17     5     6   ar
    18     6     7   ar
    19     7     8    1
    20     7     9   ar
    21     9    10    1
    22     9    11   ar
    23    11    12   ar
    24    12     2   ar
    25    11     4   ar
    26    29    22   ar
    27     1    13    1
    28     1    14    1
    29    19    20    1
    30     8    15    1
    31    10    16    1
@<TRIPOS>MOLECULE
*****
 29 31 0 0 0
SMALL
GASTEIGER

@<TRIPOS>ATOM
      1 N          63.5260   85.8608   16.9207 N.pl3   1  UNL1       -0.3375
      2 C          63.3602   85.0500   15.6697 C.ar    1  UNL1        0.1568
      3 N          63.0745   85.5906   14.3000 N.ar    1  UNL1       -0.2242
      4 C          62.9886   84.4310   13.3525 C.ar    1  UNL1        0.0967
      5 C          62.7286   84.3575   11.8770 C.ar    1  UNL1        0.0747
      6 C          62.7013   83.0266   11.1856 C.ar    1  UNL1        0.0458
      7 C          62.9339   81.7692   11.9697 C.ar    1  UNL1        0.1682
      8 O          62.9065   80.4383   11.2784 O.3     1  UNL1       -0.5029
      9 C          63.1938   81.8427   13.4452 C.ar    1  UNL1        0.1751
     10 O          63.4265   80.5853   14.2293 O.3     1  UNL1       -0.5025
     11 C          63.2212   83.1736   14.1366 C.ar    1  UNL1        0.0865
     12 S          63.4508   83.5561   15.5687 S.2     1  UNL1       -0.0488
     13 H          63.4483   86.8416   16.8856 H       1  UNL1        0.1442
     14 H          63.7127   85.4121   17.7770 H       1  UNL1        0.1442
     15 H          62.7441   80.3924   10.3567 H       1  UNL1        0.2923
     16 H          63.4094   79.7539   13.7974 H       1  UNL1        0.2923
     17 C          62.4960   85.6149   11.0929 C.2     1  UNL1        0.2477
     18 O          62.6844   85.6165    9.6049 O.2     1  UNL1       -0.2701
     19 N          62.0749   86.8708   11.7970 N.am    1  UNL1       -0.2969
     20 H          61.9513   86.8697   12.7737 H       1  UNL1        0.1501
     21 C          61.8423   88.1282   11.0129 C.3     1  UNL1        0.1166
     22 C          62.7009   89.3337   11.2567 C.ar    1  UNL1       -0.0017
     23 C          62.8830   90.3561   10.1743 C.ar    1  UNL1       -0.0017
     24 C          63.7416   91.5616   10.4181 C.ar    1  UNL1        0.0120
     25 C          64.4181   91.7449   11.7443 C.ar    1  UNL1        0.0682
     26 CL         65.2767   92.9504   11.9881 Cl      1  UNL1       -0.0814
     27 C          64.2360   90.7225   12.8267 C.ar    1  UNL1        0.0679
     28 CL         64.9125   90.9056   14.1529 Cl      1  UNL1       -0.0814
     29 C          63.3774   89.5169   12.5829 C.ar    1  UNL1        0.0096
@<TRIPOS>BOND
     1     1     2    1
     2     2     3   ar
     3     3     4   ar
     4     4     5   ar
     5     5    17    1
     6    17    18    2
     7    17    19   am
     8    19    21    1
     9    21    22    1
    10    22    23   ar
    11    23    24   ar
    12    24    25   ar
    13    25    26    1
    14    25    27   ar
    15    27    28    1
    16    27    29   ar
    17     5     6   ar
    18     6     7   ar
    19     7     8    1
    20     7     9   ar
    21     9    10    1
    22     9    11   ar
    23    11    12   ar
    24    12     2   ar
    25    11     4   ar
    26    29    22   ar
    27     1    13    1
    28     1    14    1
    29    19    20    1
    30     8    15    1
    31    10    16    1
@<TRIPOS>MOLECULE
*****
 29 31 0 0 0
SMALL
GASTEIGER

@<TRIPOS>ATOM
      1 N          61.8273   86.8914    9.2570 N.pl3   1  UNL1       -0.3375
      2 C          62.2647   86.0480   10.4178 C.ar    1  UNL1        0.1568
      3 N          62.7397   86.5556   11.7469 N.ar    1  UNL1       -0.2242
      4 C          63.0725   85.3703   12.6038 C.ar    1  UNL1        0.0967
      5 C          63.5860   85.2600   14.0089 C.ar    1  UNL1        0.0747
      6 C          63.8302   83.9095   14.6144 C.ar    1  UNL1        0.0458
      7 C          63.5609   82.6693   13.8148 C.ar    1  UNL1        0.1682
      8 O          63.8051   81.3188   14.4202 O.3     1  UNL1       -0.5029
      9 C          63.0474   82.7796   12.4097 C.ar    1  UNL1        0.1751
     10 O          62.7781   81.5394   11.6100 O.3     1  UNL1       -0.5025
     11 C          62.8032   84.1300   11.8042 C.ar    1  UNL1        0.0865
     12 S          62.3040   84.5489   10.4532 S.2     1  UNL1       -0.0488
     13 H          61.8368   87.8731    9.3306 H       1  UNL1        0.1442
     14 H          61.5307   86.4632    8.4216 H       1  UNL1        0.1442
     15 H          64.1258   81.2499   15.2979 H       1  UNL1        0.2923
     16 H          62.9307   80.6958   11.9882 H       1  UNL1        0.2923
     17 C          63.8552   86.5002   14.8085 C.2     1  UNL1        0.2477
     18 O          63.9218   86.4279   16.3052 O.2     1  UNL1       -0.2701
     19 N          64.0580   87.8128   14.1112 N.am    1  UNL1       -0.2969
     20 H          64.0143   87.8603   13.1289 H       1  UNL1        0.1501
     21 C          64.3273   89.0530   14.9109 C.3     1  UNL1        0.1166
     22 C          64.7820   90.3055   14.2220 C.ar    1  UNL1       -0.0017
     23 C          64.2123   90.6749   12.8845 C.ar    1  UNL1       -0.0017
     24 C          64.6670   91.9274   12.1957 C.ar    1  UNL1        0.0120
     25 C          65.6914   92.8105   12.8444 C.ar    1  UNL1        0.0682
     26 CL         66.1461   94.0630   12.1556 Cl      1  UNL1       -0.0814
     27 C          66.2611   92.4411   14.1820 C.ar    1  UNL1        0.0679
     28 CL         67.2854   93.3242   14.8307 Cl      1  UNL1       -0.0814
     29 C          65.8063   91.1886   14.8708 C.ar    1  UNL1        0.0096
@<TRIPOS>BOND
     1     1     2    1
     2     2     3   ar
     3     3     4   ar
     4     4     5   ar
     5     5    17    1
     6    17    18    2
     7    17    19   am
     8    19    21    1
     9    21    22    1
    10    22    23   ar
    11    23    24   ar
    12    24    25   ar
    13    25    26    1
    14    25    27   ar
    15    27    28    1
    16    27    29   ar
    17     5     6   ar
    18     6     7   ar
    19     7     8    1
    20     7     9   ar
    21     9    10    1
    22     9    11   ar
    23    11    12   ar
    24    12     2   ar
    25    11     4   ar
    26    29    22   ar
    27     1    13    1
    28     1    14    1
    29    19    20    1
    30     8    15    1
    31    10    16    1
@<TRIPOS>MOLECULE
*****
 29 31 0 0 0
SMALL
GASTEIGER

@<TRIPOS>ATOM
      1 N          61.8285   86.7522    9.1692 N.pl3   1  UNL1       -0.3375
      2 C          62.2675   85.9504   10.3585 C.ar    1  UNL1        0.1568
      3 N          62.6946   86.5035   11.6857 N.ar    1  UNL1       -0.2242
      4 C          63.0476   85.3497   12.5769 C.ar    1  UNL1        0.0967
      5 C          63.5323   85.2884   13.9951 C.ar    1  UNL1        0.0747
      6 C          63.8079   83.9609   14.6368 C.ar    1  UNL1        0.0458
      7 C          63.5989   82.6947   13.8603 C.ar    1  UNL1        0.1682
      8 O          63.8745   81.3672   14.5020 O.3     1  UNL1       -0.5029
      9 C          63.1141   82.7560   12.4421 C.ar    1  UNL1        0.1751
     10 O          62.9051   81.4897   11.6656 O.3     1  UNL1       -0.5025
     11 C          62.8385   84.0834   11.8004 C.ar    1  UNL1        0.0865
     12 S          62.3564   84.4547   10.4294 S.2     1  UNL1       -0.0488
     13 H          61.8032   87.7350    9.2203 H       1  UNL1        0.1442
     14 H          61.5656   86.2956    8.3375 H       1  UNL1        0.1442
     15 H          64.1773   81.3289   15.3879 H       1  UNL1        0.2923
     16 H          63.0773   80.6605   12.0665 H       1  UNL1        0.2923
     17 C          63.7413   86.5547   14.7716 C.2     1  UNL1        0.2477
     18 O          63.6080   86.5490   16.2656 O.2     1  UNL1       -0.2701
     19 N          64.0837   87.8267   14.0539 N.am    1  UNL1       -0.2969
     20 H          64.1712   87.8304   13.0734 H       1  UNL1        0.1501
     21 C          64.2928   89.0929   14.8304 C.3     1  UNL1        0.1166
     22 C          64.7536   90.3358   14.1284 C.ar    1  UNL1       -0.0017
     23 C          65.6981   91.2780   14.8141 C.ar    1  UNL1       -0.0017
     24 C          66.1589   92.5209   14.1121 C.ar    1  UNL1        0.0120
     25 C          65.6754   92.8215   12.7243 C.ar    1  UNL1        0.0682
     26 CL         66.1362   94.0644   12.0223 Cl      1  UNL1       -0.0814
     27 C          64.7309   91.8793   12.0386 C.ar    1  UNL1        0.0679
     28 CL         64.2473   92.1799   10.6510 Cl      1  UNL1       -0.0814
     29 C          64.2701   90.6364   12.7407 C.ar    1  UNL1        0.0096
@<TRIPOS>BOND
     1     1     2    1
     2     2     3   ar
     3     3     4   ar
     4     4     5   ar
     5     5    17    1
     6    17    18    2
     7    17    19   am
     8    19    21    1
     9    21    22    1
    10    22    23   ar
    11    23    24   ar
    12    24    25   ar
    13    25    26    1
    14    25    27   ar
    15    27    28    1
    16    27    29   ar
    17     5     6   ar
    18     6     7   ar
    19     7     8    1
    20     7     9   ar
    21     9    10    1
    22     9    11   ar
    23    11    12   ar
    24    12     2   ar
    25    11     4   ar
    26    29    22   ar
    27     1    13    1
    28     1    14    1
    29    19    20    1
    30     8    15    1
    31    10    16    1
@<TRIPOS>MOLECULE
*****
 29 31 0 0 0
SMALL
GASTEIGER

@<TRIPOS>ATOM
      1 N          61.7266   86.9057    9.7351 N.pl3   1  UNL1       -0.3375
      2 C          62.3311   86.3494   10.9901 C.ar    1  UNL1        0.1568
      3 N          62.7521   87.1415   12.1923 N.ar    1  UNL1       -0.2242
      4 C          63.3020   86.1850   13.2085 C.ar    1  UNL1        0.0967
      5 C          63.8661   86.3949   14.5824 C.ar    1  UNL1        0.0747
      6 C          64.3491   85.2214   15.3823 C.ar    1  UNL1        0.0458
      7 C          64.2680   83.8380   14.8081 C.ar    1  UNL1        0.1682
      8 O          64.7510   82.6645   15.6078 O.3     1  UNL1       -0.5029
      9 C          63.7039   83.6281   13.4341 C.ar    1  UNL1        0.1751
     10 O          63.6228   82.2447   12.8599 O.3     1  UNL1       -0.5025
     11 C          63.2209   84.8016   12.6343 C.ar    1  UNL1        0.0865
     12 S          62.6209   84.9032   11.2633 S.2     1  UNL1       -0.0488
     13 H          61.5743   87.8746    9.6496 H       1  UNL1        0.1442
     14 H          61.4821   86.3019    8.9969 H       1  UNL1        0.1442
     15 H          65.1033   82.7956   16.4661 H       1  UNL1        0.2923
     16 H          63.9245   81.5117   13.3595 H       1  UNL1        0.2923
     17 C          63.9472   87.7783   15.1566 C.2     1  UNL1        0.2477
     18 O          63.3584   88.0660   16.5058 O.2     1  UNL1       -0.2701
     19 N          64.6170   88.8740   14.3814 N.am    1  UNL1       -0.2969
     20 H          65.0034   88.6851   13.4958 H       1  UNL1        0.1501
     21 C          64.6981   90.2573   14.9555 C.3     1  UNL1        0.1166
     22 C          65.1625   91.3985   14.0999 C.ar    1  UNL1       -0.0017
     23 C          66.0362   92.4679   14.6856 C.ar    1  UNL1       -0.0017
     24 C          66.5006   93.6090   13.8299 C.ar    1  UNL1        0.0120
     25 C          66.0914   93.6807   12.3886 C.ar    1  UNL1        0.0682
     26 CL         66.5558   94.8218   11.5330 Cl      1  UNL1       -0.0814
     27 C          65.2177   92.6113   11.8029 C.ar    1  UNL1        0.0679
     28 CL         64.8084   92.6830   10.3617 Cl      1  UNL1       -0.0814
     29 C          64.7533   91.4701   12.6586 C.ar    1  UNL1        0.0096
@<TRIPOS>BOND
     1     1     2    1
     2     2     3   ar
     3     3     4   ar
     4     4     5   ar
     5     5    17    1
     6    17    18    2
     7    17    19   am
     8    19    21    1
     9    21    22    1
    10    22    23   ar
    11    23    24   ar
    12    24    25   ar
    13    25    26    1
    14    25    27   ar
    15    27    28    1
    16    27    29   ar
    17     5     6   ar
    18     6     7   ar
    19     7     8    1
    20     7     9   ar
    21     9    10    1
    22     9    11   ar
    23    11    12   ar
    24    12     2   ar
    25    11     4   ar
    26    29    22   ar
    27     1    13    1
    28     1    14    1
    29    19    20    1
    30     8    15    1
    31    10    16    1
@<TRIPOS>MOLECULE
*****
 29 31 0 0 0
SMALL
GASTEIGER

@<TRIPOS>ATOM
      1 N          61.1906   88.0380    9.1364 N.pl3   1  UNL1       -0.3375
      2 C          61.9337   87.8244   10.4217 C.ar    1  UNL1        0.1568
      3 N          62.5570   88.8944   11.2682 N.ar    1  UNL1       -0.2242
      4 C          63.1926   88.2345   12.4559 C.ar    1  UNL1        0.0967
      5 C          63.9514   88.7884   13.6252 C.ar    1  UNL1        0.0747
      6 C          64.4799   87.8644   14.6821 C.ar    1  UNL1        0.0458
      7 C          64.2495   86.3864   14.5696 C.ar    1  UNL1        0.1682
      8 O          64.7779   85.4624   15.6264 O.3     1  UNL1       -0.5029
      9 C          63.4906   85.8325   13.4002 C.ar    1  UNL1        0.1751
     10 O          63.2602   84.3546   13.2877 O.3     1  UNL1       -0.5025
     11 C          62.9622   86.7566   12.3434 C.ar    1  UNL1        0.0865
     12 S          62.1842   86.5031   11.0862 S.2     1  UNL1       -0.0488
     13 H          61.0776   88.9482    8.7786 H       1  UNL1        0.1442
     14 H          60.8157   87.2681    8.6507 H       1  UNL1        0.1442
     15 H          65.2519   85.8084   16.3569 H       1  UNL1        0.2923
     16 H          63.5903   83.7774   13.9479 H       1  UNL1        0.2923
     17 C          64.1819   90.2663   13.7377 C.2     1  UNL1        0.2477
     18 O          63.4913   91.0534   14.8116 O.2     1  UNL1       -0.2701
     19 N          65.1029   90.9571   12.7761 N.am    1  UNL1       -0.2969
     20 H          65.5562   90.4405   12.0712 H       1  UNL1        0.1501
     21 C          65.3334   92.4350   12.8886 C.3     1  UNL1        0.1166
     22 C          65.9951   93.1785   11.7664 C.ar    1  UNL1       -0.0017
     23 C          65.7472   94.6474   11.5909 C.ar    1  UNL1       -0.0017
     24 C          66.4089   95.3908   10.4687 C.ar    1  UNL1        0.0120
     25 C          67.3186   94.6653    9.5220 C.ar    1  UNL1        0.0682
     26 CL         67.9804   95.4088    8.3998 Cl      1  UNL1       -0.0814
     27 C          67.5666   93.1964    9.6975 C.ar    1  UNL1        0.0679
     28 CL         68.4762   92.4709    8.7509 Cl      1  UNL1       -0.0814
     29 C          66.9048   92.4530   10.8198 C.ar    1  UNL1        0.0096
@<TRIPOS>BOND
     1     1     2    1
     2     2     3   ar
     3     3     4   ar
     4     4     5   ar
     5     5    17    1
     6    17    18    2
     7    17    19   am
     8    19    21    1
     9    21    22    1
    10    22    23   ar
    11    23    24   ar
    12    24    25   ar
    13    25    26    1
    14    25    27   ar
    15    27    28    1
    16    27    29   ar
    17     5     6   ar
    18     6     7   ar
    19     7     8    1
    20     7     9   ar
    21     9    10    1
    22     9    11   ar
    23    11    12   ar
    24    12     2   ar
    25    11     4   ar
    26    29    22   ar
    27     1    13    1
    28     1    14    1
    29    19    20    1
    30     8    15    1
    31    10    16    1
@<TRIPOS>MOLECULE
*****
 29 31 0 0 0
SMALL
GASTEIGER

@<TRIPOS>ATOM
      1 N          63.9126   83.5695   15.7053 N.pl3   1  UNL1       -0.3375
      2 C          63.6577   83.9966   14.2902 C.ar    1  UNL1        0.1568
      3 N          63.2202   85.3609   13.8462 N.ar    1  UNL1       -0.2242
      4 C          63.0877   85.3419   12.3521 C.ar    1  UNL1        0.0967
      5 C          62.6891   86.3998   11.3663 C.ar    1  UNL1        0.0747
      6 C          62.6461   86.0816    9.9010 C.ar    1  UNL1        0.0458
      7 C          63.0017   84.7055    9.4217 C.ar    1  UNL1        0.1682
      8 O          62.9588   84.3872    7.9565 O.3     1  UNL1       -0.5029
      9 C          63.4003   83.6475   10.4076 C.ar    1  UNL1        0.1751
     10 O          63.7559   82.2714    9.9282 O.3     1  UNL1       -0.5025
     11 C          63.4432   83.9657   11.8728 C.ar    1  UNL1        0.0865
     12 S          63.7956   83.1343   13.0705 S.2     1  UNL1       -0.0488
     13 H          63.7941   84.2115   16.4422 H       1  UNL1        0.1442
     14 H          64.1984   82.6471   15.8972 H       1  UNL1        0.1442
     15 H          62.7098   85.0481    7.3406 H       1  UNL1        0.2923
     16 H          63.7291   82.0726    9.0129 H       1  UNL1        0.2923
     17 C          62.3335   87.7759   11.8457 C.2     1  UNL1        0.2477
     18 O          60.9734   88.3409   11.5616 O.2     1  UNL1       -0.2701
     19 N          63.3381   88.5871   12.6092 N.am    1  UNL1       -0.2969
     20 H          64.2309   88.2162   12.7957 H       1  UNL1        0.1501
     21 C          62.9826   89.9632   13.0886 C.3     1  UNL1        0.1166
     22 C          64.0638   90.9122   13.5130 C.ar    1  UNL1       -0.0017
     23 C          64.5179   90.9409   14.9424 C.ar    1  UNL1       -0.0017
     24 C          65.5992   91.8899   15.3669 C.ar    1  UNL1        0.0120
     25 C          66.2263   92.8103   14.3620 C.ar    1  UNL1        0.0682
     26 CL         67.3075   93.7594   14.7865 Cl      1  UNL1       -0.0814
     27 C          65.7722   92.7817   12.9327 C.ar    1  UNL1        0.0679
     28 CL         66.3992   93.7020   11.9279 Cl      1  UNL1       -0.0814
     29 C          64.6909   91.8326   12.5082 C.ar    1  UNL1        0.0096
@<TRIPOS>BOND
     1     1     2    1
     2     2     3   ar
     3     3     4   ar
     4     4     5   ar
     5     5    17    1
     6    17    18    2
     7    17    19   am
     8    19    21    1
     9    21    22    1
    10    22    23   ar
    11    23    24   ar
    12    24    25   ar
    13    25    26    1
    14    25    27   ar
    15    27    28    1
    16    27    29   ar
    17     5     6   ar
    18     6     7   ar
    19     7     8    1
    20     7     9   ar
    21     9    10    1
    22     9    11   ar
    23    11    12   ar
    24    12     2   ar
    25    11     4   ar
    26    29    22   ar
    27     1    13    1
    28     1    14    1
    29    19    20    1
    30     8    15    1
    31    10    16    1
