@<TRIPOS>MOLECULE
*****
 36 39 0 0 0
SMALL
GASTEIGER

@<TRIPOS>ATOM
      1 C          63.2605   87.8213   12.6394 C.3     1  UNL1        0.1412
      2 C          64.0173   87.6392   13.9216 C.3     1  UNL1        0.0451
      3 C          64.2855   86.2593   14.4448 C.3     1  UNL1        0.0297
      4 C          63.7968   85.0613   13.6858 C.ar    1  UNL1       -0.0237
      5 C          64.0650   83.6813   14.2090 C.ar    1  UNL1        0.0251
      6 C          63.5763   82.4834   13.4499 C.ar    1  UNL1        0.1398
      7 F          63.8445   81.1034   13.9731 F       1  UNL1       -0.2042
      8 C          62.8196   82.6655   12.1677 C.ar    1  UNL1        0.0293
      9 C          62.5514   84.0454   11.6445 C.ar    1  UNL1       -0.0022
     10 C          63.0400   85.2433   12.4035 C.ar    1  UNL1       -0.0229
     11 C          62.7719   86.6234   11.8803 C.3     1  UNL1        0.0588
     12 C          62.0151   86.8054   10.5981 C.3     1  UNL1        0.0074
     13 C          60.5161   86.8554   10.6126 C.3     1  UNL1        0.0005
     14 C          62.7575   86.9375    9.3013 C.3     1  UNL1        0.0005
     15 O          62.5929   88.5014   11.4811 O.3     1  UNL1       -0.4537
     16 C          61.6455   89.6388   11.7237 C.2     1  UNL1        0.3473
     17 O          60.5448   89.4957   12.7326 O.2     1  UNL1       -0.2473
     18 C          61.7988   90.9191   10.9573 C.3     1  UNL1        0.2520
     19 C          64.1202   91.9234   10.3639 C.3     1  UNL1        0.1748
     20 O          62.9345   91.0835    9.9914 O.3     1  UNL1       -0.3403
     21 C          63.5173   89.2554   12.9962 C.3     1  UNL1        0.0577
     22 C          63.4567   89.6943   14.4293 C.3     1  UNL1        0.0757
     23 N          64.1820   90.9325   14.8658 N.3     1  UNL1       -0.2714
     24 C          64.0421   91.4260   16.2754 C.3     1  UNL1        0.0896
     25 C          65.0471   91.6773   13.8928 C.3     1  UNL1        0.0728
     26 C          66.5190   91.8126   14.1489 C.3     1  UNL1        0.0303
     27 C          67.4691   91.9683   12.9987 C.3     1  UNL1        0.1252
     28 C          67.2181   93.0164   11.9552 C.2     1  UNL1        0.3513
     29 N          67.6931   92.9762   10.5330 N.2     1  UNL1       -0.0350
     30 C          67.2167   94.2236    9.8498 C.2     1  UNL1        0.2317
     31 C          67.3841   94.7257    8.4462 C.2     1  UNL1        0.0498
     32 C          66.7821   96.0389    8.0426 C.2     1  UNL1       -0.0002
     33 C          66.0126   96.8502    9.0425 C.2     1  UNL1       -0.0172
     34 C          65.8452   96.3481   10.4461 C.3     1  UNL1        0.1037
     35 C          66.4472   95.0349   10.8497 C.2     1  UNL1        0.2174
     36 N          66.4481   94.2888   12.1510 N.2     1  UNL1       -0.0389
@<TRIPOS>BOND
     1    19    20    1
     2    20    18    1
     3    18    16    1
     4    16    17    2
     5    16    15    1
     6    15     1    1
     7     1    21    1
     8    21    22    1
     9    22    23    1
    10    23    24    1
    11    23    25    1
    12    25    26    1
    13    26    27    1
    14    27    28    1
    15    28    29    2
    16    29    30    1
    17    30    31    2
    18    31    32    1
    19    32    33    2
    20    33    34    1
    21    34    35    1
    22    35    36    2
    23     1     2    1
    24     2     3    1
    25     3     4    1
    26     4     5   ar
    27     5     6   ar
    28     6     7    1
    29     6     8   ar
    30     8     9   ar
    31     9    10   ar
    32    10    11    1
    33    11    12    1
    34    12    13    1
    35    12    14    1
    36    11     1    1
    37    36    28    1
    38    10     4   ar
    39    35    30    1
@<TRIPOS>MOLECULE
*****
 36 39 0 0 0
SMALL
GASTEIGER

@<TRIPOS>ATOM
      1 C          63.2375   87.4267   12.5233 C.3     1  UNL1        0.1412
      2 C          63.9475   87.1944   13.8240 C.3     1  UNL1        0.0451
      3 C          64.1554   85.7962   14.3257 C.3     1  UNL1        0.0297
      4 C          63.6533   84.6302   13.5267 C.ar    1  UNL1       -0.0237
      5 C          63.8612   83.2320   14.0284 C.ar    1  UNL1        0.0251
      6 C          63.3590   82.0661   13.2294 C.ar    1  UNL1        0.1398
      7 F          63.5669   80.6678   13.7311 F       1  UNL1       -0.2042
      8 C          62.6490   82.2984   11.9287 C.ar    1  UNL1        0.0293
      9 C          62.4411   83.6966   11.4270 C.ar    1  UNL1       -0.0022
     10 C          62.9432   84.8625   12.2260 C.ar    1  UNL1       -0.0229
     11 C          62.7353   86.2608   11.7243 C.3     1  UNL1        0.0588
     12 C          62.0253   86.4931   10.4236 C.3     1  UNL1        0.0074
     13 C          62.7895   86.4490    9.1336 C.3     1  UNL1        0.0005
     14 C          60.5509   86.7694   10.4128 C.3     1  UNL1        0.0005
     15 O          62.6284   88.1513   11.3597 O.3     1  UNL1       -0.4537
     16 C          61.8305   89.4008   11.5886 C.2     1  UNL1        0.3473
     17 O          61.0814   89.5871   12.8747 O.2     1  UNL1       -0.2473
     18 C          61.7819   90.4638   10.5314 C.3     1  UNL1        0.2520
     19 C          64.0235   91.7552   10.7712 C.3     1  UNL1        0.1748
     20 O          63.0544   90.9803    9.9282 O.3     1  UNL1       -0.3403
     21 C          63.5281   88.8443   12.9182 C.3     1  UNL1        0.0577
     22 C          64.4065   89.1286   14.1004 C.3     1  UNL1        0.0757
     23 N          64.0935   90.2816   15.0074 N.3     1  UNL1       -0.2714
     24 C          63.3088   90.0546   16.2655 C.3     1  UNL1        0.0896
     25 C          64.5653   91.6614   14.6563 C.3     1  UNL1        0.0728
     26 C          66.0039   92.0360   14.8573 C.3     1  UNL1        0.0303
     27 C          66.9867   91.8658   13.7370 C.3     1  UNL1        0.1252
     28 C          66.9600   92.8041   12.5669 C.2     1  UNL1        0.3513
     29 N          66.3546   94.1764   12.5509 N.2     1  UNL1       -0.0350
     30 C          66.5545   94.7552   11.1816 C.2     1  UNL1        0.2317
     31 C          66.1669   96.0751   10.5834 C.2     1  UNL1        0.0498
     32 C          66.5082   96.3803    9.1550 C.2     1  UNL1       -0.0002
     33 C          67.2370   95.3657    8.3248 C.2     1  UNL1       -0.0172
     34 C          67.6246   94.0458    8.9229 C.3     1  UNL1        0.1037
     35 C          67.2833   93.7406   10.3513 C.2     1  UNL1        0.2174
     36 N          67.5339   92.5347   11.2075 N.2     1  UNL1       -0.0389
@<TRIPOS>BOND
     1    19    20    1
     2    20    18    1
     3    18    16    1
     4    16    17    2
     5    16    15    1
     6    15     1    1
     7     1    21    1
     8    21    22    1
     9    22    23    1
    10    23    24    1
    11    23    25    1
    12    25    26    1
    13    26    27    1
    14    27    28    1
    15    28    29    2
    16    29    30    1
    17    30    31    2
    18    31    32    1
    19    32    33    2
    20    33    34    1
    21    34    35    1
    22    35    36    2
    23     1     2    1
    24     2     3    1
    25     3     4    1
    26     4     5   ar
    27     5     6   ar
    28     6     7    1
    29     6     8   ar
    30     8     9   ar
    31     9    10   ar
    32    10    11    1
    33    11    12    1
    34    12    13    1
    35    12    14    1
    36    11     1    1
    37    36    28    1
    38    10     4   ar
    39    35    30    1
@<TRIPOS>MOLECULE
*****
 36 39 0 0 0
SMALL
GASTEIGER

@<TRIPOS>ATOM
      1 C          63.6248   85.4911   13.0399 C.3     1  UNL1        0.1412
      2 C          63.4621   86.9360   13.4082 C.3     1  UNL1        0.0451
      3 C          62.7724   87.8771   12.4656 C.3     1  UNL1        0.0297
      4 C          62.2454   87.3733   11.1547 C.ar    1  UNL1       -0.0237
      5 C          61.5557   88.3145   10.2121 C.ar    1  UNL1        0.0251
      6 C          61.0288   87.8107    8.9012 C.ar    1  UNL1        0.1398
      7 F          60.3390   88.7518    7.9585 F       1  UNL1       -0.2042
      8 C          61.1915   86.3657    8.5329 C.ar    1  UNL1        0.0293
      9 C          61.8812   85.4246    9.4755 C.ar    1  UNL1       -0.0022
     10 C          62.4082   85.9284   10.7864 C.ar    1  UNL1       -0.0229
     11 C          63.0979   84.9872   11.7291 C.3     1  UNL1        0.0588
     12 C          63.2607   83.5423   11.3608 C.3     1  UNL1        0.0074
     13 C          62.1104   82.5932   11.5216 C.3     1  UNL1        0.0005
     14 C          64.5738   83.0465   10.8316 C.3     1  UNL1        0.0005
     15 O          64.0180   84.0469   13.1388 O.3     1  UNL1       -0.4537
     16 C          63.7228   83.2732   14.3896 C.2     1  UNL1        0.3473
     17 O          64.8119   83.0200   15.3895 O.2     1  UNL1       -0.2473
     18 C          62.3384   82.7527   14.6403 C.3     1  UNL1        0.2520
     19 C          60.7131   80.7761   14.1919 C.3     1  UNL1        0.1748
     20 O          62.0706   81.2778   14.5862 O.3     1  UNL1       -0.3403
     21 C          64.2883   85.4933   14.3852 C.3     1  UNL1        0.0577
     22 C          64.2450   86.7246   15.2408 C.3     1  UNL1        0.0757
     23 N          63.3323   86.7799   16.4299 N.3     1  UNL1       -0.2714
     24 C          62.6348   85.5374   16.8985 C.3     1  UNL1        0.0896
     25 C          63.1171   88.0779   17.1503 C.3     1  UNL1        0.0728
     26 C          62.7443   89.3101   16.3803 C.3     1  UNL1        0.0303
     27 C          63.6537   90.5030   16.3881 C.3     1  UNL1        0.1252
     28 C          64.2652   90.9882   15.1071 C.2     1  UNL1        0.3513
     29 N          65.6750   91.4687   14.9296 N.2     1  UNL1       -0.0350
     30 C          65.8552   91.8556   13.4915 C.2     1  UNL1        0.2317
     31 C          67.0339   92.3965   12.7378 C.2     1  UNL1        0.0498
     32 C          66.9142   92.6960   11.2729 C.2     1  UNL1       -0.0002
     33 C          65.6157   92.4547   10.5617 C.2     1  UNL1       -0.0172
     34 C          64.4370   91.9138   11.3155 C.3     1  UNL1        0.1037
     35 C          64.5567   91.6142   12.7803 C.2     1  UNL1        0.2174
     36 N          63.5740   91.0782   13.7788 N.2     1  UNL1       -0.0389
@<TRIPOS>BOND
     1    19    20    1
     2    20    18    1
     3    18    16    1
     4    16    17    2
     5    16    15    1
     6    15     1    1
     7     1    21    1
     8    21    22    1
     9    22    23    1
    10    23    24    1
    11    23    25    1
    12    25    26    1
    13    26    27    1
    14    27    28    1
    15    28    29    2
    16    29    30    1
    17    30    31    2
    18    31    32    1
    19    32    33    2
    20    33    34    1
    21    34    35    1
    22    35    36    2
    23     1     2    1
    24     2     3    1
    25     3     4    1
    26     4     5   ar
    27     5     6   ar
    28     6     7    1
    29     6     8   ar
    30     8     9   ar
    31     9    10   ar
    32    10    11    1
    33    11    12    1
    34    12    13    1
    35    12    14    1
    36    11     1    1
    37    36    28    1
    38    10     4   ar
    39    35    30    1
@<TRIPOS>MOLECULE
*****
 36 39 0 0 0
SMALL
GASTEIGER

@<TRIPOS>ATOM
      1 C          63.1296   85.0700   12.6596 C.3     1  UNL1        0.1412
      2 C          63.1521   85.0350   11.1602 C.3     1  UNL1        0.0451
      3 C          63.0677   83.7223   10.4393 C.3     1  UNL1        0.0297
      4 C          62.9608   82.4446   11.2178 C.ar    1  UNL1       -0.0237
      5 C          62.8764   81.1319   10.4969 C.ar    1  UNL1        0.0251
      6 C          62.7695   79.8543   11.2755 C.ar    1  UNL1        0.1398
      7 F          62.6850   78.5415   10.5546 F       1  UNL1       -0.2042
      8 C          62.7470   79.8893   12.7749 C.ar    1  UNL1        0.0293
      9 C          62.8315   81.2020   13.4958 C.ar    1  UNL1       -0.0022
     10 C          62.9383   82.4796   12.7173 C.ar    1  UNL1       -0.0229
     11 C          63.0228   83.7924   13.4381 C.3     1  UNL1        0.0588
     12 C          63.0003   83.8274   14.9376 C.3     1  UNL1        0.0074
     13 C          61.7999   84.3666   15.6573 C.3     1  UNL1        0.0005
     14 C          64.1784   83.3231   15.7173 C.3     1  UNL1        0.0005
     15 O          63.1463   85.6144   14.0572 O.3     1  UNL1       -0.4537
     16 C          64.3036   86.4468   14.5241 C.2     1  UNL1        0.3473
     17 O          65.6592   85.8245   14.6828 O.2     1  UNL1       -0.2473
     18 C          64.1052   87.9013   14.8324 C.3     1  UNL1        0.2520
     19 C          63.2463   89.7341   16.4612 C.3     1  UNL1        0.1748
     20 O          63.2360   88.3121   15.9838 O.3     1  UNL1       -0.3403
     21 C          63.2423   86.5367   12.3664 C.3     1  UNL1        0.0577
     22 C          62.4001   87.1532   11.2892 C.3     1  UNL1        0.0757
     23 N          61.8414   88.5333   11.4713 N.3     1  UNL1       -0.2714
     24 C          60.3724   88.7775   11.2917 C.3     1  UNL1        0.0896
     25 C          62.7519   89.6692   11.8330 C.3     1  UNL1        0.0728
     26 C          62.7817   90.9059   10.9845 C.3     1  UNL1        0.0303
     27 C          64.0597   91.6746   10.8241 C.3     1  UNL1        0.1252
     28 C          64.9625   91.8831   12.0038 C.2     1  UNL1        0.3513
     29 N          66.4574   91.9987   11.9604 N.2     1  UNL1       -0.0350
     30 C          66.9477   92.1997   13.3637 C.2     1  UNL1        0.2317
     31 C          68.3255   92.3760   13.9300 C.2     1  UNL1        0.0498
     32 C          68.5114   92.5608   15.4068 C.2     1  UNL1       -0.0002
     33 C          67.3195   92.5695   16.3175 C.2     1  UNL1       -0.0172
     34 C          65.9417   92.3932   15.7513 C.3     1  UNL1        0.1037
     35 C          65.7558   92.2083   14.2744 C.2     1  UNL1        0.2174
     36 N          64.5289   92.0127   13.4339 N.2     1  UNL1       -0.0389
@<TRIPOS>BOND
     1    19    20    1
     2    20    18    1
     3    18    16    1
     4    16    17    2
     5    16    15    1
     6    15     1    1
     7     1    21    1
     8    21    22    1
     9    22    23    1
    10    23    24    1
    11    23    25    1
    12    25    26    1
    13    26    27    1
    14    27    28    1
    15    28    29    2
    16    29    30    1
    17    30    31    2
    18    31    32    1
    19    32    33    2
    20    33    34    1
    21    34    35    1
    22    35    36    2
    23     1     2    1
    24     2     3    1
    25     3     4    1
    26     4     5   ar
    27     5     6   ar
    28     6     7    1
    29     6     8   ar
    30     8     9   ar
    31     9    10   ar
    32    10    11    1
    33    11    12    1
    34    12    13    1
    35    12    14    1
    36    11     1    1
    37    36    28    1
    38    10     4   ar
    39    35    30    1
@<TRIPOS>MOLECULE
*****
 36 39 0 0 0
SMALL
GASTEIGER

@<TRIPOS>ATOM
      1 C          63.0097   88.8492   12.3263 C.3     1  UNL1        0.1412
      2 C          63.2947   87.4025   12.6014 C.3     1  UNL1        0.0451
      3 C          62.7716   86.3456   11.6744 C.3     1  UNL1        0.0297
      4 C          61.9634   86.7354   10.4723 C.ar    1  UNL1       -0.0237
      5 C          61.4403   85.6785    9.5454 C.ar    1  UNL1        0.0251
      6 C          60.6321   86.0684    8.3434 C.ar    1  UNL1        0.1398
      7 F          60.1089   85.0115    7.4164 F       1  UNL1       -0.2042
      8 C          60.3471   87.5152    8.0683 C.ar    1  UNL1        0.0293
      9 C          60.8703   88.5720    8.9953 C.ar    1  UNL1       -0.0022
     10 C          61.6784   88.1822   10.1973 C.ar    1  UNL1       -0.0229
     11 C          62.2016   89.2391   11.1243 C.3     1  UNL1        0.0588
     12 C          61.9166   90.6859   10.8492 C.3     1  UNL1        0.0074
     13 C          62.9375   91.5310   10.1466 C.3     1  UNL1        0.0005
     14 C          60.6107   91.2875   11.2767 C.3     1  UNL1        0.0005
     15 O          63.0048   90.3404   12.4882 O.3     1  UNL1       -0.4537
     16 C          63.9362   90.9916   13.4673 C.2     1  UNL1        0.3473
     17 O          63.4787   91.2653   14.8694 O.2     1  UNL1       -0.2473
     18 C          65.3250   91.3691   13.0443 C.3     1  UNL1        0.2520
     19 C          66.6783   93.3188   14.1011 C.3     1  UNL1        0.1748
     20 O          66.3098   91.8653   14.0611 O.3     1  UNL1       -0.3403
     21 C          63.8162   88.9772   13.5846 C.3     1  UNL1        0.0577
     22 C          64.1576   87.7550   14.3843 C.3     1  UNL1        0.0757
     23 N          63.6649   87.6195   15.7945 N.3     1  UNL1       -0.2714
     24 C          63.1346   88.8192   16.5222 C.3     1  UNL1        0.0896
     25 C          63.7024   86.2843   16.4770 C.3     1  UNL1        0.0728
     26 C          62.4829   85.4109   16.4836 C.3     1  UNL1        0.0303
     27 C          62.6159   83.9354   16.2484 C.3     1  UNL1        0.1252
     28 C          62.8911   83.4179   14.8676 C.2     1  UNL1        0.3513
     29 N          63.8602   84.0031   13.8836 N.2     1  UNL1       -0.0350
     30 C          63.8135   83.1712   12.6363 C.2     1  UNL1        0.2317
     31 C          64.5509   83.2727   11.3340 C.2     1  UNL1        0.0498
     32 C          64.2902   82.2748   10.2448 C.2     1  UNL1       -0.0002
     33 C          63.2923   81.1754   10.4580 C.2     1  UNL1       -0.0172
     34 C          62.5549   81.0740   11.7603 C.3     1  UNL1        0.1037
     35 C          62.8156   82.0718   12.8495 C.2     1  UNL1        0.2174
     36 N          62.2455   82.2243   14.2285 N.2     1  UNL1       -0.0389
@<TRIPOS>BOND
     1    19    20    1
     2    20    18    1
     3    18    16    1
     4    16    17    2
     5    16    15    1
     6    15     1    1
     7     1    21    1
     8    21    22    1
     9    22    23    1
    10    23    24    1
    11    23    25    1
    12    25    26    1
    13    26    27    1
    14    27    28    1
    15    28    29    2
    16    29    30    1
    17    30    31    2
    18    31    32    1
    19    32    33    2
    20    33    34    1
    21    34    35    1
    22    35    36    2
    23     1     2    1
    24     2     3    1
    25     3     4    1
    26     4     5   ar
    27     5     6   ar
    28     6     7    1
    29     6     8   ar
    30     8     9   ar
    31     9    10   ar
    32    10    11    1
    33    11    12    1
    34    12    13    1
    35    12    14    1
    36    11     1    1
    37    36    28    1
    38    10     4   ar
    39    35    30    1
@<TRIPOS>MOLECULE
*****
 36 39 0 0 0
SMALL
GASTEIGER

@<TRIPOS>ATOM
      1 C          63.0942   87.8826   12.3474 C.3     1  UNL1        0.1412
      2 C          62.8733   89.3342   12.0408 C.3     1  UNL1        0.0451
      3 C          61.9934   89.7329   10.8933 C.3     1  UNL1        0.0297
      4 C          61.3343   88.6800   10.0523 C.ar    1  UNL1       -0.0237
      5 C          60.4545   89.0787    8.9049 C.ar    1  UNL1        0.0251
      6 C          59.7955   88.0258    8.0640 C.ar    1  UNL1        0.1398
      7 F          58.9155   88.4245    6.9164 F       1  UNL1       -0.2042
      8 C          60.0163   86.5742    8.3707 C.ar    1  UNL1        0.0293
      9 C          60.8962   86.1755    9.5181 C.ar    1  UNL1       -0.0022
     10 C          61.5552   87.2284   10.3590 C.ar    1  UNL1       -0.0229
     11 C          62.4352   86.8297   11.5066 C.3     1  UNL1        0.0588
     12 C          62.6561   85.3781   11.8132 C.3     1  UNL1        0.0074
     13 C          61.9867   84.7521   13.0006 C.3     1  UNL1        0.0005
     14 C          63.5464   84.5525   10.9323 C.3     1  UNL1        0.0005
     15 O          63.6056   86.6478   13.0282 O.3     1  UNL1       -0.4537
     16 C          64.1360   86.7286   14.4290 C.2     1  UNL1        0.3473
     17 O          63.4302   87.5699   15.4507 O.2     1  UNL1       -0.2473
     18 C          65.3723   85.9682   14.8079 C.3     1  UNL1        0.2520
     19 C          64.3391   83.6069   15.1344 C.3     1  UNL1        0.1748
     20 O          65.4327   84.4839   14.6005 O.3     1  UNL1       -0.3403
     21 C          63.9308   88.5067   13.4247 C.3     1  UNL1        0.0577
     22 C          64.1648   89.9883   13.4291 C.3     1  UNL1        0.0757
     23 N          64.8508   90.6359   14.5953 N.3     1  UNL1       -0.2714
     24 C          64.0558   91.0477   15.7988 C.3     1  UNL1        0.0896
     25 C          66.3316   90.8716   14.5579 C.3     1  UNL1        0.0728
     26 C          66.8909   92.1976   14.9813 C.3     1  UNL1        0.0303
     27 C          66.3118   93.4664   14.4293 C.3     1  UNL1        0.1252
     28 C          66.5343   93.8287   12.9907 C.2     1  UNL1        0.3513
     29 N          67.1592   92.9512   11.9470 N.2     1  UNL1       -0.0350
     30 C          67.1821   93.7123   10.6547 C.2     1  UNL1        0.2317
     31 C          67.6802   93.3521    9.2864 C.2     1  UNL1        0.0498
     32 C          67.5675   94.3398    8.1631 C.2     1  UNL1       -0.0002
     33 C          66.9568   95.6877    8.4081 C.2     1  UNL1       -0.0172
     34 C          66.4587   96.0479    9.7764 C.3     1  UNL1        0.1037
     35 C          66.5713   95.0602   10.8996 C.2     1  UNL1        0.2174
     36 N          66.1710   95.1322   12.3434 N.2     1  UNL1       -0.0389
@<TRIPOS>BOND
     1    19    20    1
     2    20    18    1
     3    18    16    1
     4    16    17    2
     5    16    15    1
     6    15     1    1
     7     1    21    1
     8    21    22    1
     9    22    23    1
    10    23    24    1
    11    23    25    1
    12    25    26    1
    13    26    27    1
    14    27    28    1
    15    28    29    2
    16    29    30    1
    17    30    31    2
    18    31    32    1
    19    32    33    2
    20    33    34    1
    21    34    35    1
    22    35    36    2
    23     1     2    1
    24     2     3    1
    25     3     4    1
    26     4     5   ar
    27     5     6   ar
    28     6     7    1
    29     6     8   ar
    30     8     9   ar
    31     9    10   ar
    32    10    11    1
    33    11    12    1
    34    12    13    1
    35    12    14    1
    36    11     1    1
    37    36    28    1
    38    10     4   ar
    39    35    30    1
@<TRIPOS>MOLECULE
*****
 36 39 0 0 0
SMALL
GASTEIGER

@<TRIPOS>ATOM
      1 C          63.4627   86.8847   13.0215 C.3     1  UNL1        0.1412
      2 C          62.7693   86.7120   11.7026 C.3     1  UNL1        0.0451
      3 C          62.4563   85.3359   11.1944 C.3     1  UNL1        0.0297
      4 C          62.8367   84.1324   12.0051 C.ar    1  UNL1       -0.0237
      5 C          62.5237   82.7563   11.4968 C.ar    1  UNL1        0.0251
      6 C          62.9041   81.5530   12.3075 C.ar    1  UNL1        0.1398
      7 F          62.5911   80.1768   11.7993 F       1  UNL1       -0.2042
      8 C          63.5974   81.7257   13.6263 C.ar    1  UNL1        0.0293
      9 C          63.9104   83.1018   14.1346 C.ar    1  UNL1       -0.0022
     10 C          63.5301   84.3052   13.3239 C.ar    1  UNL1       -0.0229
     11 C          63.8431   85.6814   13.8321 C.3     1  UNL1        0.0588
     12 C          64.5364   85.8541   15.1510 C.3     1  UNL1        0.0074
     13 C          66.0333   85.9330   15.2067 C.3     1  UNL1        0.0005
     14 C          63.7329   85.9479   16.4142 C.3     1  UNL1        0.0005
     15 O          64.1009   87.5564   14.2011 O.3     1  UNL1       -0.4537
     16 C          63.7432   88.9728   14.5419 C.2     1  UNL1        0.3473
     17 O          62.3558   89.3052   15.0049 O.2     1  UNL1       -0.2473
     18 C          64.7731   90.0566   14.4196 C.3     1  UNL1        0.2520
     19 C          64.3758   91.7441   16.3546 C.3     1  UNL1        0.1748
     20 O          64.4578   91.4467   14.8866 O.3     1  UNL1       -0.3403
     21 C          63.3040   88.3214   12.6205 C.3     1  UNL1        0.0577
     22 C          62.3990   88.6866   11.4814 C.3     1  UNL1        0.0757
     23 N          61.9830   90.1139   11.2818 N.3     1  UNL1       -0.2714
     24 C          60.5607   90.4388   10.9334 C.3     1  UNL1        0.0896
     25 C          62.9894   91.2161   11.4305 C.3     1  UNL1        0.0728
     26 C          63.8332   91.6243   10.2593 C.3     1  UNL1        0.0303
     27 C          64.8472   92.7191   10.4109 C.3     1  UNL1        0.1252
     28 C          65.7355   92.7566   11.6192 C.2     1  UNL1        0.3513
     29 N          66.9185   91.8696   11.8716 N.2     1  UNL1       -0.0350
     30 C          67.5107   92.2525   13.1955 C.2     1  UNL1        0.2317
     31 C          68.6884   91.7231   13.9590 C.2     1  UNL1        0.0498
     32 C          69.0491   92.3173   15.2882 C.2     1  UNL1       -0.0002
     33 C          68.2320   93.4408   15.8540 C.2     1  UNL1       -0.0172
     34 C          67.0543   93.9702   15.0905 C.3     1  UNL1        0.1037
     35 C          66.6936   93.3760   13.7613 C.2     1  UNL1        0.2174
     36 N          65.5965   93.6876   12.7871 N.2     1  UNL1       -0.0389
@<TRIPOS>BOND
     1    19    20    1
     2    20    18    1
     3    18    16    1
     4    16    17    2
     5    16    15    1
     6    15     1    1
     7     1    21    1
     8    21    22    1
     9    22    23    1
    10    23    24    1
    11    23    25    1
    12    25    26    1
    13    26    27    1
    14    27    28    1
    15    28    29    2
    16    29    30    1
    17    30    31    2
    18    31    32    1
    19    32    33    2
    20    33    34    1
    21    34    35    1
    22    35    36    2
    23     1     2    1
    24     2     3    1
    25     3     4    1
    26     4     5   ar
    27     5     6   ar
    28     6     7    1
    29     6     8   ar
    30     8     9   ar
    31     9    10   ar
    32    10    11    1
    33    11    12    1
    34    12    13    1
    35    12    14    1
    36    11     1    1
    37    36    28    1
    38    10     4   ar
    39    35    30    1
@<TRIPOS>MOLECULE
*****
 36 39 0 0 0
SMALL
GASTEIGER

@<TRIPOS>ATOM
      1 C          62.3440   87.8572   11.5091 C.3     1  UNL1        0.1412
      2 C          63.0026   86.9563   12.5114 C.3     1  UNL1        0.0451
      3 C          63.9081   87.5343   13.5583 C.3     1  UNL1        0.0297
      4 C          64.1550   89.0132   13.6028 C.ar    1  UNL1       -0.0237
      5 C          65.0604   89.5912   14.6497 C.ar    1  UNL1        0.0251
      6 C          65.3073   91.0701   14.6943 C.ar    1  UNL1        0.1398
      7 F          66.2128   91.6482   15.7412 F       1  UNL1       -0.2042
      8 C          64.6487   91.9709   13.6919 C.ar    1  UNL1        0.0293
      9 C          63.7432   91.3929   12.6450 C.ar    1  UNL1       -0.0022
     10 C          63.4964   89.9141   12.6005 C.ar    1  UNL1       -0.0229
     11 C          62.5908   89.3360   11.5536 C.3     1  UNL1        0.0588
     12 C          61.9322   90.2369   10.5513 C.3     1  UNL1        0.0074
     13 C          62.6129   90.5332    9.2479 C.3     1  UNL1        0.0005
     14 C          60.5928   90.8414   10.8523 C.3     1  UNL1        0.0005
     15 O          61.4976   88.2975   10.3517 O.3     1  UNL1       -0.4537
     16 C          60.0489   87.9127   10.2927 C.2     1  UNL1        0.3473
     17 O          59.1858   88.0519   11.5115 O.2     1  UNL1       -0.2473
     18 C          59.4635   87.3887    9.0149 C.3     1  UNL1        0.2520
     19 C          59.3982   89.0963    7.0579 C.3     1  UNL1        0.1748
     20 O          59.9878   87.8733    7.6957 O.3     1  UNL1       -0.3403
     21 C          61.8032   86.5312   11.0626 C.3     1  UNL1        0.0577
     22 C          62.6539   85.3003   11.1677 C.3     1  UNL1        0.0757
     23 N          63.2128   84.6667    9.9282 N.3     1  UNL1       -0.2714
     24 C          62.8830   85.2366    8.5805 C.3     1  UNL1        0.0896
     25 C          64.1014   83.4631   10.0366 C.3     1  UNL1        0.0728
     26 C          63.5177   82.1303   10.4016 C.3     1  UNL1        0.0303
     27 C          63.6238   81.6255   11.8101 C.3     1  UNL1        0.1252
     28 C          63.5043   82.5811   12.9602 C.2     1  UNL1        0.3513
     29 N          64.6235   83.3736   13.5679 N.2     1  UNL1       -0.0350
     30 C          64.0555   84.1941   14.6878 C.2     1  UNL1        0.2317
     31 C          64.6871   85.1644   15.6416 C.2     1  UNL1        0.0498
     32 C          63.8486   85.8491   16.6798 C.2     1  UNL1       -0.0002
     33 C          62.3784   85.5637   16.7643 C.2     1  UNL1       -0.0172
     34 C          61.7468   84.5934   15.8104 C.3     1  UNL1        0.1037
     35 C          62.5853   83.9087   14.7722 C.2     1  UNL1        0.2174
     36 N          62.2447   82.9117   13.7045 N.2     1  UNL1       -0.0389
@<TRIPOS>BOND
     1    19    20    1
     2    20    18    1
     3    18    16    1
     4    16    17    2
     5    16    15    1
     6    15     1    1
     7     1    21    1
     8    21    22    1
     9    22    23    1
    10    23    24    1
    11    23    25    1
    12    25    26    1
    13    26    27    1
    14    27    28    1
    15    28    29    2
    16    29    30    1
    17    30    31    2
    18    31    32    1
    19    32    33    2
    20    33    34    1
    21    34    35    1
    22    35    36    2
    23     1     2    1
    24     2     3    1
    25     3     4    1
    26     4     5   ar
    27     5     6   ar
    28     6     7    1
    29     6     8   ar
    30     8     9   ar
    31     9    10   ar
    32    10    11    1
    33    11    12    1
    34    12    13    1
    35    12    14    1
    36    11     1    1
    37    36    28    1
    38    10     4   ar
    39    35    30    1
@<TRIPOS>MOLECULE
*****
 36 39 0 0 0
SMALL
GASTEIGER

@<TRIPOS>ATOM
      1 C          62.4969   87.9802   11.3312 C.3     1  UNL1        0.1412
      2 C          62.1544   86.6523   10.7233 C.3     1  UNL1        0.0451
      3 C          62.5341   85.3842   11.4288 C.3     1  UNL1        0.0297
      4 C          63.2562   85.4440   12.7423 C.ar    1  UNL1       -0.0237
      5 C          63.6359   84.1759   13.4478 C.ar    1  UNL1        0.0251
      6 C          64.3580   84.2357   14.7612 C.ar    1  UNL1        0.1398
      7 F          64.7377   82.9676   15.4668 F       1  UNL1       -0.2042
      8 C          64.7004   85.5636   15.3690 C.ar    1  UNL1        0.0293
      9 C          64.3207   86.8317   14.6635 C.ar    1  UNL1       -0.0022
     10 C          63.5986   86.7719   13.3501 C.ar    1  UNL1       -0.0229
     11 C          63.2189   88.0400   12.6445 C.3     1  UNL1        0.0588
     12 C          63.5614   89.3679   13.2524 C.3     1  UNL1        0.0074
     13 C          62.8306   89.8451   14.4723 C.3     1  UNL1        0.0005
     14 C          64.6346   90.2185   12.6402 C.3     1  UNL1        0.0005
     15 O          62.6011   89.4665   11.5037 O.3     1  UNL1       -0.4537
     16 C          61.6017   90.3700   10.8441 C.2     1  UNL1        0.3473
     17 O          62.0270   91.2613    9.7150 O.2     1  UNL1       -0.2473
     18 C          60.1771   90.3822   11.3136 C.3     1  UNL1        0.2520
     19 C          58.5246   89.0099   12.7751 C.3     1  UNL1        0.1748
     20 O          59.8158   89.7594   12.6295 O.3     1  UNL1       -0.3403
     21 C          61.8110   88.4365   10.0777 C.3     1  UNL1        0.0577
     22 C          61.3066   87.4278    9.0888 C.3     1  UNL1        0.0757
     23 N          60.0780   87.7201    8.2794 N.3     1  UNL1       -0.2714
     24 C          59.1180   86.6163    7.9480 C.3     1  UNL1        0.0896
     25 C          59.8095   89.1164    7.8015 C.3     1  UNL1        0.0728
     26 C          59.4285   89.3592    6.3711 C.3     1  UNL1        0.0303
     27 C          58.9735   90.7210    5.9370 C.3     1  UNL1        0.1252
     28 C          59.6933   91.4351    4.8315 C.2     1  UNL1        0.3513
     29 N          61.1452   91.2874    4.4851 N.2     1  UNL1       -0.0350
     30 C          61.4366   92.1833    3.3179 C.2     1  UNL1        0.2317
     31 C          62.6959   92.4510    2.5479 C.2     1  UNL1        0.0498
     32 C          62.6833   93.4201    1.4031 C.2     1  UNL1       -0.0002
     33 C          61.4115   94.1215    1.0282 C.2     1  UNL1       -0.0172
     34 C          60.1523   93.8538    1.7981 C.3     1  UNL1        0.1037
     35 C          60.1649   92.8847    2.9429 C.2     1  UNL1        0.2174
     36 N          59.0874   92.4223    3.8784 N.2     1  UNL1       -0.0389
@<TRIPOS>BOND
     1    19    20    1
     2    20    18    1
     3    18    16    1
     4    16    17    2
     5    16    15    1
     6    15     1    1
     7     1    21    1
     8    21    22    1
     9    22    23    1
    10    23    24    1
    11    23    25    1
    12    25    26    1
    13    26    27    1
    14    27    28    1
    15    28    29    2
    16    29    30    1
    17    30    31    2
    18    31    32    1
    19    32    33    2
    20    33    34    1
    21    34    35    1
    22    35    36    2
    23     1     2    1
    24     2     3    1
    25     3     4    1
    26     4     5   ar
    27     5     6   ar
    28     6     7    1
    29     6     8   ar
    30     8     9   ar
    31     9    10   ar
    32    10    11    1
    33    11    12    1
    34    12    13    1
    35    12    14    1
    36    11     1    1
    37    36    28    1
    38    10     4   ar
    39    35    30    1
