@<TRIPOS>MOLECULE
*****
 27 29 0 0 0
SMALL
GASTEIGER

@<TRIPOS>ATOM
      1 N          62.6044   86.9113   11.8738 N.pl3   1  UNL1       -0.3021
      2 C          62.8635   88.3794   11.7078 C.ar    1  UNL1        0.0481
      3 C          63.5061   89.1577   12.8173 C.ar    1  UNL1        0.0145
      4 C          63.7652   90.6258   12.6513 C.ar    1  UNL1        0.0013
      5 C          63.3816   91.3155   11.3757 C.ar    1  UNL1        0.0001
      6 C          62.7390   90.5372   10.2661 C.ar    1  UNL1        0.0013
      7 C          62.4799   89.0691   10.4321 C.ar    1  UNL1        0.0145
      8 C          63.5216   86.0787   12.7198 C.3     1  UNL1        0.1095
      9 C          63.0844   84.7230   13.1896 C.3     1  UNL1        0.1073
     10 N          63.2705   83.5265   12.3044 N.3     1  UNL1       -0.2704
     11 C          62.4109   82.2973   12.2910 C.3     1  UNL1        0.0722
     12 C          62.9581   81.3602   11.2554 C.3     1  UNL1        0.0188
     13 C          64.1560   82.0102   10.6289 C.3     1  UNL1        0.0188
     14 C          64.3491   83.3490   11.2771 C.3     1  UNL1        0.0722
     15 C          62.4610   84.5638   14.5446 C.3     1  UNL1        0.1597
     16 O          63.2642   84.8517   15.7782 O.3     1  UNL1       -0.3523
     17 C          63.8223   86.2252   16.0062 C.3     1  UNL1        0.1421
     18 C          63.1083   88.6172   16.7262 C.3     1  UNL1        0.0026
     19 C          63.1727   87.1436   16.9985 C.3     1  UNL1        0.0297
     20 C          62.5875   86.5883   18.2631 C.3     1  UNL1        0.0026
     21 C          61.4281   86.2757   11.1939 C.3     1  UNL1        0.1177
     22 C          61.5064   85.9164    9.7396 C.ar    1  UNL1       -0.0024
     23 C          60.3382   86.1827    8.8373 C.ar    1  UNL1       -0.0026
     24 C          60.4165   85.8235    7.3831 C.ar    1  UNL1       -0.0003
     25 C          61.6631   85.1979    6.8312 C.ar    1  UNL1       -0.0000
     26 C          62.8314   84.9316    7.7335 C.ar    1  UNL1       -0.0003
     27 C          62.7530   85.2908    9.1877 C.ar    1  UNL1       -0.0026
@<TRIPOS>BOND
     1    18    19    1
     2    19    20    1
     3    19    17    1
     4    17    16    1
     5    16    15    1
     6    15     9    1
     7     9     8    1
     8     8     1    1
     9     1    21    1
    10    21    22    1
    11    22    23   ar
    12    23    24   ar
    13    24    25   ar
    14    25    26   ar
    15    26    27   ar
    16     1     2    1
    17     2     3   ar
    18     3     4   ar
    19     4     5   ar
    20     5     6   ar
    21     6     7   ar
    22     9    10    1
    23    10    11    1
    24    11    12    1
    25    12    13    1
    26    13    14    1
    27    27    22   ar
    28     7     2   ar
    29    14    10    1
@<TRIPOS>MOLECULE
*****
 27 29 0 0 0
SMALL
GASTEIGER

@<TRIPOS>ATOM
      1 N          63.9066   89.5530   13.3275 N.pl3   1  UNL1       -0.3021
      2 C          63.0697   89.0789   12.1764 C.ar    1  UNL1        0.0481
      3 C          62.8566   87.6102   11.9589 C.ar    1  UNL1        0.0145
      4 C          62.0197   87.1362   10.8078 C.ar    1  UNL1        0.0013
      5 C          61.3959   88.1309    9.8744 C.ar    1  UNL1        0.0001
      6 C          61.6089   89.5997   10.0919 C.ar    1  UNL1        0.0013
      7 C          62.4458   90.0737   11.2430 C.ar    1  UNL1        0.0145
      8 C          63.9574   91.0133   13.6665 C.3     1  UNL1        0.1095
      9 C          65.1067   91.8535   13.1938 C.3     1  UNL1        0.1073
     10 N          66.2024   92.2296   14.1466 N.3     1  UNL1       -0.2704
     11 C          67.0874   91.2761   14.8933 C.3     1  UNL1        0.0722
     12 C          68.0375   92.0825   15.7282 C.3     1  UNL1        0.0188
     13 C          67.7396   93.5345   15.4974 C.3     1  UNL1        0.0188
     14 C          66.6055   93.6253   14.5200 C.3     1  UNL1        0.0722
     15 C          65.1601   92.3174   11.7684 C.3     1  UNL1        0.1597
     16 O          66.4795   92.6497   11.1368 O.3     1  UNL1       -0.3523
     17 C          66.6455   93.9324   10.3772 C.3     1  UNL1        0.1421
     18 C          68.4431   92.8159    8.8698 C.3     1  UNL1        0.0026
     19 C          67.5717   93.9917    9.1987 C.3     1  UNL1        0.0297
     20 C          67.6265   95.2267    8.3492 C.3     1  UNL1        0.0026
     21 C          64.6927   88.5668   14.1395 C.3     1  UNL1        0.1177
     22 C          64.0328   87.8269   15.2652 C.ar    1  UNL1       -0.0024
     23 C          64.0503   86.3272   15.2892 C.ar    1  UNL1       -0.0026
     24 C          63.3904   85.5874   16.4149 C.ar    1  UNL1       -0.0003
     25 C          62.7130   86.3473   17.5166 C.ar    1  UNL1       -0.0000
     26 C          62.6954   87.8470   17.4925 C.ar    1  UNL1       -0.0003
     27 C          63.3553   88.5868   16.3668 C.ar    1  UNL1       -0.0026
@<TRIPOS>BOND
     1    18    19    1
     2    19    20    1
     3    19    17    1
     4    17    16    1
     5    16    15    1
     6    15     9    1
     7     9     8    1
     8     8     1    1
     9     1    21    1
    10    21    22    1
    11    22    23   ar
    12    23    24   ar
    13    24    25   ar
    14    25    26   ar
    15    26    27   ar
    16     1     2    1
    17     2     3   ar
    18     3     4   ar
    19     4     5   ar
    20     5     6   ar
    21     6     7   ar
    22     9    10    1
    23    10    11    1
    24    11    12    1
    25    12    13    1
    26    13    14    1
    27    27    22   ar
    28     7     2   ar
    29    14    10    1
@<TRIPOS>MOLECULE
*****
 27 29 0 0 0
SMALL
GASTEIGER

@<TRIPOS>ATOM
      1 N          63.9685   89.7076   13.9705 N.pl3   1  UNL1       -0.3021
      2 C          63.7827   88.5901   14.9536 C.ar    1  UNL1        0.0481
      3 C          63.1251   88.8556   16.2754 C.ar    1  UNL1        0.0145
      4 C          62.9393   87.7380   17.2586 C.ar    1  UNL1        0.0013
      5 C          63.4112   86.3551   16.9200 C.ar    1  UNL1        0.0001
      6 C          64.0689   86.0895   15.5982 C.ar    1  UNL1        0.0013
      7 C          64.2546   87.2070   14.6150 C.ar    1  UNL1        0.0145
      8 C          64.2838   91.0908   14.4579 C.3     1  UNL1        0.1095
      9 C          65.3793   91.8833   13.8086 C.3     1  UNL1        0.1073
     10 N          66.6341   92.1921   14.5702 N.3     1  UNL1       -0.2704
     11 C          68.0365   92.0136   14.0686 C.3     1  UNL1        0.0722
     12 C          68.9760   92.4449   15.1555 C.3     1  UNL1        0.0188
     13 C          68.1542   92.8899   16.3289 C.3     1  UNL1        0.0188
     14 C          66.7069   92.7336   15.9671 C.3     1  UNL1        0.0722
     15 C          65.2201   92.3670   12.3977 C.3     1  UNL1        0.1597
     16 O          65.9422   93.6000   11.9415 O.3     1  UNL1       -0.3523
     17 C          65.9483   93.9711   10.4881 C.3     1  UNL1        0.1421
     18 C          67.6992   94.9542    8.8395 C.3     1  UNL1        0.0026
     19 C          67.2021   93.8152    9.6795 C.3     1  UNL1        0.0297
     20 C          67.9588   92.5205    9.7110 C.3     1  UNL1        0.0026
     21 C          63.8390   89.4420   12.4999 C.3     1  UNL1        0.1177
     22 C          62.5282   88.9831   11.9332 C.ar    1  UNL1       -0.0024
     23 C          61.3414   89.9002   11.9504 C.ar    1  UNL1       -0.0026
     24 C          60.0306   89.4413   11.3837 C.ar    1  UNL1       -0.0003
     25 C          59.9066   88.0652   10.7997 C.ar    1  UNL1       -0.0000
     26 C          61.0934   87.1480   10.7825 C.ar    1  UNL1       -0.0003
     27 C          62.4042   87.6070   11.3492 C.ar    1  UNL1       -0.0026
@<TRIPOS>BOND
     1    18    19    1
     2    19    20    1
     3    19    17    1
     4    17    16    1
     5    16    15    1
     6    15     9    1
     7     9     8    1
     8     8     1    1
     9     1    21    1
    10    21    22    1
    11    22    23   ar
    12    23    24   ar
    13    24    25   ar
    14    25    26   ar
    15    26    27   ar
    16     1     2    1
    17     2     3   ar
    18     3     4   ar
    19     4     5   ar
    20     5     6   ar
    21     6     7   ar
    22     9    10    1
    23    10    11    1
    24    11    12    1
    25    12    13    1
    26    13    14    1
    27    27    22   ar
    28     7     2   ar
    29    14    10    1
@<TRIPOS>MOLECULE
*****
 27 29 0 0 0
SMALL
GASTEIGER

@<TRIPOS>ATOM
      1 N          64.0177   91.2376   11.9149 N.pl3   1  UNL1       -0.3021
      2 C          63.9328   90.4066   13.1608 C.ar    1  UNL1        0.0481
      3 C          63.7420   91.0695   14.4928 C.ar    1  UNL1        0.0145
      4 C          63.6571   90.2386   15.7387 C.ar    1  UNL1        0.0013
      5 C          63.7630   88.7448   15.6527 C.ar    1  UNL1        0.0001
      6 C          63.9538   88.0819   14.3206 C.ar    1  UNL1        0.0013
      7 C          64.0387   88.9128   13.0747 C.ar    1  UNL1        0.0145
      8 C          64.8005   92.5172   11.9186 C.3     1  UNL1        0.1095
      9 C          66.2994   92.4793   11.9603 C.3     1  UNL1        0.1073
     10 N          67.0932   92.8591   10.7456 N.3     1  UNL1       -0.2704
     11 C          68.0221   91.9614    9.9831 C.3     1  UNL1        0.0722
     12 C          68.6005   92.7508    8.8463 C.3     1  UNL1        0.0188
     13 C          68.0290   94.1364    8.9062 C.3     1  UNL1        0.0188
     14 C          67.0975   94.2033   10.0800 C.3     1  UNL1        0.0722
     15 C          67.0045   92.0616   13.2166 C.3     1  UNL1        0.1597
     16 O          68.4970   92.1761   13.3124 O.3     1  UNL1       -0.3523
     17 C          69.1541   92.3138   14.6538 C.3     1  UNL1        0.1421
     18 C          67.2152   92.6636   16.3476 C.3     1  UNL1        0.0026
     19 C          68.4999   93.1298   15.7292 C.3     1  UNL1        0.0297
     20 C          69.1303   94.4119   16.1861 C.3     1  UNL1        0.0026
     21 C          63.3199   90.7890   10.6652 C.3     1  UNL1        0.1177
     22 C          62.1581   89.8441   10.7529 C.ar    1  UNL1       -0.0024
     23 C          62.2337   88.4993   10.0927 C.ar    1  UNL1       -0.0026
     24 C          61.0720   87.5545   10.1804 C.ar    1  UNL1       -0.0003
     25 C          59.8347   87.9544   10.9283 C.ar    1  UNL1       -0.0000
     26 C          59.7592   89.2992   11.5884 C.ar    1  UNL1       -0.0003
     27 C          60.9209   90.2440   11.5007 C.ar    1  UNL1       -0.0026
@<TRIPOS>BOND
     1    18    19    1
     2    19    20    1
     3    19    17    1
     4    17    16    1
     5    16    15    1
     6    15     9    1
     7     9     8    1
     8     8     1    1
     9     1    21    1
    10    21    22    1
    11    22    23   ar
    12    23    24   ar
    13    24    25   ar
    14    25    26   ar
    15    26    27   ar
    16     1     2    1
    17     2     3   ar
    18     3     4   ar
    19     4     5   ar
    20     5     6   ar
    21     6     7   ar
    22     9    10    1
    23    10    11    1
    24    11    12    1
    25    12    13    1
    26    13    14    1
    27    27    22   ar
    28     7     2   ar
    29    14    10    1
@<TRIPOS>MOLECULE
*****
 27 29 0 0 0
SMALL
GASTEIGER

@<TRIPOS>ATOM
      1 N          63.3207   89.2719   13.1510 N.pl3   1  UNL1       -0.3021
      2 C          62.3612   89.1085   12.0096 C.ar    1  UNL1        0.0481
      3 C          62.6978   88.1900   10.8725 C.ar    1  UNL1        0.0145
      4 C          61.7383   88.0265    9.7312 C.ar    1  UNL1        0.0013
      5 C          60.4422   88.7816    9.7270 C.ar    1  UNL1        0.0001
      6 C          60.1056   89.7001   10.8641 C.ar    1  UNL1        0.0013
      7 C          61.0651   89.8636   12.0055 C.ar    1  UNL1        0.0145
      8 C          64.2771   88.1674   13.4908 C.3     1  UNL1        0.1095
      9 C          63.7856   86.9426   14.2038 C.3     1  UNL1        0.1073
     10 N          63.4097   87.0191   15.6539 N.3     1  UNL1       -0.2704
     11 C          63.3047   88.2716   16.4726 C.3     1  UNL1        0.0722
     12 C          62.9029   87.8832   17.8646 C.3     1  UNL1        0.0188
     13 C          62.7597   86.3905   17.9062 C.3     1  UNL1        0.0188
     14 C          63.0729   85.8566   16.5399 C.3     1  UNL1        0.0722
     15 C          63.6700   85.6414   13.4667 C.3     1  UNL1        0.1597
     16 O          62.4067   85.3060   12.7307 O.3     1  UNL1       -0.3523
     17 C          62.4748   84.6303   11.3932 C.3     1  UNL1        0.1421
     18 C          62.6573   82.1684   12.2030 C.3     1  UNL1        0.0026
     19 C          63.0843   83.2650   11.2728 C.3     1  UNL1        0.0297
     20 C          64.1207   82.9963   10.2224 C.3     1  UNL1        0.0026
     21 C          63.3238   90.5398   13.9525 C.3     1  UNL1        0.1177
     22 C          64.5597   91.3881   14.0093 C.ar    1  UNL1       -0.0024
     23 C          65.2814   91.5756   15.3108 C.ar    1  UNL1       -0.0026
     24 C          66.5172   92.4239   15.3676 C.ar    1  UNL1       -0.0003
     25 C          67.0312   93.0847   14.1230 C.ar    1  UNL1       -0.0000
     26 C          66.3094   92.8971   12.8215 C.ar    1  UNL1       -0.0003
     27 C          65.0737   92.0489   12.7647 C.ar    1  UNL1       -0.0026
@<TRIPOS>BOND
     1    18    19    1
     2    19    20    1
     3    19    17    1
     4    17    16    1
     5    16    15    1
     6    15     9    1
     7     9     8    1
     8     8     1    1
     9     1    21    1
    10    21    22    1
    11    22    23   ar
    12    23    24   ar
    13    24    25   ar
    14    25    26   ar
    15    26    27   ar
    16     1     2    1
    17     2     3   ar
    18     3     4   ar
    19     4     5   ar
    20     5     6   ar
    21     6     7   ar
    22     9    10    1
    23    10    11    1
    24    11    12    1
    25    12    13    1
    26    13    14    1
    27    27    22   ar
    28     7     2   ar
    29    14    10    1
@<TRIPOS>MOLECULE
*****
 27 29 0 0 0
SMALL
GASTEIGER

@<TRIPOS>ATOM
      1 N          63.0258   88.2288   12.4135 N.pl3   1  UNL1       -0.3021
      2 C          62.2088   87.6138   11.3162 C.ar    1  UNL1        0.0481
      3 C          60.8366   88.1408   11.0173 C.ar    1  UNL1        0.0145
      4 C          60.0195   87.5257    9.9200 C.ar    1  UNL1        0.0013
      5 C          60.5746   86.3836    9.1217 C.ar    1  UNL1        0.0001
      6 C          61.9468   85.8565    9.4206 C.ar    1  UNL1        0.0013
      7 C          62.7639   86.4716   10.5179 C.ar    1  UNL1        0.0145
      8 C          64.0957   87.4258   13.0923 C.3     1  UNL1        0.1095
      9 C          63.7210   86.3554   14.0740 C.3     1  UNL1        0.1073
     10 N          63.3888   86.7199   15.4905 N.3     1  UNL1       -0.2704
     11 C          62.9766   85.7666   16.5728 C.3     1  UNL1        0.0722
     12 C          62.7434   86.5593   17.8247 C.3     1  UNL1        0.0188
     13 C          63.0114   88.0026   17.5161 C.3     1  UNL1        0.0188
     14 C          63.4103   88.1018   16.0735 C.3     1  UNL1        0.0722
     15 C          63.6787   84.9204   13.6391 C.3     1  UNL1        0.1597
     16 O          62.4996   84.4048   12.8685 O.3     1  UNL1       -0.3523
     17 C          62.5787   83.0762   12.1766 C.3     1  UNL1        0.1421
     18 C          61.8396   81.8583   14.3493 C.3     1  UNL1        0.0026
     19 C          62.4102   81.8099   12.9629 C.3     1  UNL1        0.0297
     20 C          62.8123   80.4953   12.3628 C.3     1  UNL1        0.0026
     21 C          62.7731   89.6469   12.8321 C.3     1  UNL1        0.1177
     22 C          63.7912   90.7085   12.5380 C.ar    1  UNL1       -0.0024
     23 C          64.7262   91.1703   13.6161 C.ar    1  UNL1       -0.0026
     24 C          65.7442   92.2319   13.3220 C.ar    1  UNL1       -0.0003
     25 C          65.8272   92.8317   11.9496 C.ar    1  UNL1       -0.0000
     26 C          64.8922   92.3700   10.8715 C.ar    1  UNL1       -0.0003
     27 C          63.8742   91.3084   11.1656 C.ar    1  UNL1       -0.0026
@<TRIPOS>BOND
     1    18    19    1
     2    19    20    1
     3    19    17    1
     4    17    16    1
     5    16    15    1
     6    15     9    1
     7     9     8    1
     8     8     1    1
     9     1    21    1
    10    21    22    1
    11    22    23   ar
    12    23    24   ar
    13    24    25   ar
    14    25    26   ar
    15    26    27   ar
    16     1     2    1
    17     2     3   ar
    18     3     4   ar
    19     4     5   ar
    20     5     6   ar
    21     6     7   ar
    22     9    10    1
    23    10    11    1
    24    11    12    1
    25    12    13    1
    26    13    14    1
    27    27    22   ar
    28     7     2   ar
    29    14    10    1
@<TRIPOS>MOLECULE
*****
 27 29 0 0 0
SMALL
GASTEIGER

@<TRIPOS>ATOM
      1 N          59.7401   95.2159   -0.2040 N.pl3   1  UNL1       -0.3021
      2 C          58.4737   94.5952   -0.7150 C.ar    1  UNL1        0.0481
      3 C          57.3542   95.4671   -1.2013 C.ar    1  UNL1        0.0145
      4 C          56.0878   94.8465   -1.7122 C.ar    1  UNL1        0.0013
      5 C          55.9409   93.3539   -1.7369 C.ar    1  UNL1        0.0001
      6 C          57.0604   92.4819   -1.2506 C.ar    1  UNL1        0.0013
      7 C          58.3268   93.1026   -0.7396 C.ar    1  UNL1        0.0145
      8 C          60.1160   95.0718    1.2410 C.3     1  UNL1        0.1095
      9 C          61.1077   94.0262    1.6573 C.3     1  UNL1        0.1073
     10 N          62.5741   94.2541    1.4386 N.3     1  UNL1       -0.2704
     11 C          63.3091   95.5425    1.6620 C.3     1  UNL1        0.0722
     12 C          64.7522   95.3183    1.3196 C.3     1  UNL1        0.0188
     13 C          64.9090   93.8913    0.8846 C.3     1  UNL1        0.0188
     14 C          63.5629   93.2337    0.9582 C.3     1  UNL1        0.0722
     15 C          60.6331   92.7528    2.2922 C.3     1  UNL1        0.1597
     16 O          59.3987   92.7544    3.1443 O.3     1  UNL1       -0.3523
     17 C          59.4801   92.3383    4.5832 C.3     1  UNL1        0.1421
     18 C          57.0576   91.4541    4.8996 C.3     1  UNL1        0.0026
     19 C          58.5339   91.3054    5.1199 C.3     1  UNL1        0.0297
     20 C          59.0640   90.1240    5.8770 C.3     1  UNL1        0.0026
     21 C          60.6305   95.9806   -1.1380 C.3     1  UNL1        0.1177
     22 C          61.8052   95.3021   -1.7782 C.ar    1  UNL1       -0.0024
     23 C          61.7008   93.8689   -2.2080 C.ar    1  UNL1       -0.0026
     24 C          62.8755   93.1905   -2.8482 C.ar    1  UNL1       -0.0003
     25 C          64.1545   93.9453   -3.0585 C.ar    1  UNL1       -0.0000
     26 C          64.2589   95.3786   -2.6287 C.ar    1  UNL1       -0.0003
     27 C          63.0842   96.0570   -1.9885 C.ar    1  UNL1       -0.0026
@<TRIPOS>BOND
     1    18    19    1
     2    19    20    1
     3    19    17    1
     4    17    16    1
     5    16    15    1
     6    15     9    1
     7     9     8    1
     8     8     1    1
     9     1    21    1
    10    21    22    1
    11    22    23   ar
    12    23    24   ar
    13    24    25   ar
    14    25    26   ar
    15    26    27   ar
    16     1     2    1
    17     2     3   ar
    18     3     4   ar
    19     4     5   ar
    20     5     6   ar
    21     6     7   ar
    22     9    10    1
    23    10    11    1
    24    11    12    1
    25    12    13    1
    26    13    14    1
    27    27    22   ar
    28     7     2   ar
    29    14    10    1
@<TRIPOS>MOLECULE
*****
 27 29 0 0 0
SMALL
GASTEIGER

@<TRIPOS>ATOM
      1 N          62.9780   88.6341   12.4789 N.pl3   1  UNL1       -0.3021
      2 C          61.8855   89.1641   11.5984 C.ar    1  UNL1        0.0481
      3 C          60.6731   89.8023   12.2090 C.ar    1  UNL1        0.0145
      4 C          59.5806   90.3323   11.3285 C.ar    1  UNL1        0.0013
      5 C          59.7004   90.2242    9.8372 C.ar    1  UNL1        0.0001
      6 C          60.9127   89.5860    9.2264 C.ar    1  UNL1        0.0013
      7 C          62.0053   89.0560   10.1070 C.ar    1  UNL1        0.0145
      8 C          63.6072   87.3063   12.1766 C.3     1  UNL1        0.1095
      9 C          62.9351   86.0400   12.6178 C.3     1  UNL1        0.1073
     10 N          63.1025   85.5537   14.0268 N.3     1  UNL1       -0.2704
     11 C          62.3998   84.3811   14.6442 C.3     1  UNL1        0.0722
     12 C          62.8650   84.2573   16.0648 C.3     1  UNL1        0.0188
     13 C          63.8552   85.3535   16.3255 C.3     1  UNL1        0.0188
     14 C          64.0020   86.1547   15.0659 C.3     1  UNL1        0.0722
     15 C          62.0956   85.2601   11.6499 C.3     1  UNL1        0.1597
     16 O          61.6133   85.9063   10.3851 O.3     1  UNL1       -0.3523
     17 C          62.3475   85.6751    9.0976 C.3     1  UNL1        0.1421
     18 C          62.1969   84.7923    6.6587 C.3     1  UNL1        0.0026
     19 C          61.5838   85.5247    7.8153 C.3     1  UNL1        0.0297
     20 C          60.2070   86.1067    7.6897 C.3     1  UNL1        0.0026
     21 C          63.4413   89.4317   13.6617 C.3     1  UNL1        0.1177
     22 C          64.4304   90.5439   13.4754 C.ar    1  UNL1       -0.0024
     23 C          65.5106   90.7652   14.4923 C.ar    1  UNL1       -0.0026
     24 C          66.4996   91.8774   14.3060 C.ar    1  UNL1       -0.0003
     25 C          66.4085   92.7684   13.1027 C.ar    1  UNL1       -0.0000
     26 C          65.3282   92.5471   12.0858 C.ar    1  UNL1       -0.0003
     27 C          64.3392   91.4349   12.2722 C.ar    1  UNL1       -0.0026
@<TRIPOS>BOND
     1    18    19    1
     2    19    20    1
     3    19    17    1
     4    17    16    1
     5    16    15    1
     6    15     9    1
     7     9     8    1
     8     8     1    1
     9     1    21    1
    10    21    22    1
    11    22    23   ar
    12    23    24   ar
    13    24    25   ar
    14    25    26   ar
    15    26    27   ar
    16     1     2    1
    17     2     3   ar
    18     3     4   ar
    19     4     5   ar
    20     5     6   ar
    21     6     7   ar
    22     9    10    1
    23    10    11    1
    24    11    12    1
    25    12    13    1
    26    13    14    1
    27    27    22   ar
    28     7     2   ar
    29    14    10    1
@<TRIPOS>MOLECULE
*****
 27 29 0 0 0
SMALL
GASTEIGER

@<TRIPOS>ATOM
      1 N          59.9924   95.0110   -1.1227 N.pl3   1  UNL1       -0.3021
      2 C          61.3417   94.7793   -1.7357 C.ar    1  UNL1        0.0481
      3 C          61.7504   93.3964   -2.1485 C.ar    1  UNL1        0.0145
      4 C          63.0997   93.1647   -2.7615 C.ar    1  UNL1        0.0013
      5 C          64.0403   94.3159   -2.9616 C.ar    1  UNL1        0.0001
      6 C          63.6315   95.6989   -2.5488 C.ar    1  UNL1        0.0013
      7 C          62.2822   95.9306   -1.9358 C.ar    1  UNL1        0.0145
      8 C          59.8497   95.0905    0.3684 C.3     1  UNL1        0.1095
      9 C          60.4730   94.0397    1.2386 C.3     1  UNL1        0.1073
     10 N          61.9632   93.9884    1.4019 N.3     1  UNL1       -0.2704
     11 C          62.8731   95.1691    1.5691 C.3     1  UNL1        0.0722
     12 C          64.2774   94.6577    1.6972 C.3     1  UNL1        0.0188
     13 C          64.2354   93.1608    1.6091 C.3     1  UNL1        0.0188
     14 C          62.8051   92.7472    1.4266 C.3     1  UNL1        0.0722
     15 C          59.6061   93.0403    1.9455 C.3     1  UNL1        0.1597
     16 O          59.3804   93.1561    3.4239 O.3     1  UNL1       -0.3523
     17 C          59.8322   92.0576    4.3399 C.3     1  UNL1        0.1421
     18 C          59.2697   90.0960    5.9479 C.3     1  UNL1        0.0026
     19 C          58.8197   91.2265    5.0708 C.3     1  UNL1        0.0297
     20 C          57.3572   91.5260    4.9246 C.3     1  UNL1        0.0026
     21 C          58.7858   95.1632   -2.0007 C.3     1  UNL1        0.1177
     22 C          57.9890   93.9554   -2.3964 C.ar    1  UNL1       -0.0024
     23 C          58.3537   93.1883   -3.6328 C.ar    1  UNL1       -0.0026
     24 C          57.5569   91.9806   -4.0284 C.ar    1  UNL1       -0.0003
     25 C          56.3955   91.5400   -3.1876 C.ar    1  UNL1       -0.0000
     26 C          56.0308   92.3071   -1.9513 C.ar    1  UNL1       -0.0003
     27 C          56.8276   93.5148   -1.5557 C.ar    1  UNL1       -0.0026
@<TRIPOS>BOND
     1    18    19    1
     2    19    20    1
     3    19    17    1
     4    17    16    1
     5    16    15    1
     6    15     9    1
     7     9     8    1
     8     8     1    1
     9     1    21    1
    10    21    22    1
    11    22    23   ar
    12    23    24   ar
    13    24    25   ar
    14    25    26   ar
    15    26    27   ar
    16     1     2    1
    17     2     3   ar
    18     3     4   ar
    19     4     5   ar
    20     5     6   ar
    21     6     7   ar
    22     9    10    1
    23    10    11    1
    24    11    12    1
    25    12    13    1
    26    13    14    1
    27    27    22   ar
    28     7     2   ar
    29    14    10    1
