@<TRIPOS>MOLECULE
*****
 41 44 0 0 0
SMALL
GASTEIGER

@<TRIPOS>ATOM
      1 C          62.8382   86.0526   11.9975 C.ar    1  UNL1        0.0575
      2 C          62.9445   87.4646   12.4923 C.ar    1  UNL1        0.0372
      3 C          63.6537   87.7561   13.7815 C.ar    1  UNL1        0.0782
      4 N          64.2566   86.6357   14.5759 N.ar    1  UNL1       -0.2480
      5 C          64.1504   85.2236   14.0810 C.ar    1  UNL1        0.0812
      6 C          64.7533   84.1031   14.8754 C.ar    1  UNL1        0.0214
      7 C          64.6471   82.6911   14.3805 C.ar    1  UNL1        0.0312
      8 C          63.9379   82.3996   13.0913 C.ar    1  UNL1        0.1402
      9 F          63.8317   80.9875   12.5964 F       1  UNL1       -0.2042
     10 C          63.3350   83.5200   12.2970 C.ar    1  UNL1        0.0313
     11 C          63.4412   84.9320   12.7918 C.ar    1  UNL1        0.0243
     12 C          62.3415   88.5851   11.6980 C.ar    1  UNL1        0.0826
     13 C          62.9349   88.9708   10.3754 C.ar    1  UNL1        0.0192
     14 C          62.3320   90.0912    9.5810 C.ar    1  UNL1        0.0031
     15 C          61.1357   90.8260   10.1093 C.ar    1  UNL1        0.0207
     16 C          60.5424   90.4404   11.4319 C.ar    1  UNL1        0.0988
     17 N          61.1453   89.3199   12.2262 N.ar    1  UNL1       -0.2438
     18 N          62.9036   85.2729    9.5200 N.am    1  UNL1       -0.2995
     19 C          62.1291   85.7610   10.7083 C.2     1  UNL1        0.2460
     20 O          60.6455   85.9575   10.6073 O.2     1  UNL1       -0.2701
     21 H          63.8773   85.1439    9.5862 H       1  UNL1        0.1498
     22 C          62.1944   84.9814    8.2307 C.3     1  UNL1        0.1068
     23 C          61.2901   86.0120    7.6225 C.3     1  UNL1        0.0901
     24 C          58.8689   86.9383    7.7957 C.3     1  UNL1        0.0859
     25 N          59.8075   85.7858    7.5939 N.3     1  UNL1       -0.2949
     26 H          59.5885   85.3838    6.6823 H       1  UNL1        0.1233
     27 C          63.7599   89.1682   14.2764 C.3     1  UNL1        0.1110
     28 C          63.4652   89.4836   15.7129 C.3     1  UNL1        0.0278
     29 N          64.1608   90.2648   13.3347 N.pl3   1  UNL1       -0.3141
     30 H          63.8300   90.2627   12.4074 H       1  UNL1        0.1485
     31 C          65.0657   91.3644   13.8058 C.ar    1  UNL1        0.1429
     32 N          65.5740   91.3645   15.2171 N.ar    1  UNL1       -0.2084
     33 C          66.4789   92.4641   15.6883 C.ar    1  UNL1        0.2012
     34 N          66.8755   93.5636   14.7482 N.ar    1  UNL1       -0.2087
     35 C          66.3672   93.5635   13.3369 C.ar    1  UNL1        0.1396
     36 N          66.7638   94.6630   12.3968 N.pl3   1  UNL1       -0.3420
     37 C          65.4623   92.4639   12.8657 C.ar    1  UNL1        0.1308
     38 H          67.3577   95.3848   12.7061 H       1  UNL1        0.1437
     39 H          66.4302   94.6630   11.4706 H       1  UNL1        0.1437
     40 C          64.9540   92.4638   11.4545 C.1     1  UNL1        0.1061
     41 N          64.4458   92.4637   10.0433 N.1     1  UNL1       -0.1906
@<TRIPOS>BOND
     1    24    25    1
     2    25    23    1
     3    23    22    1
     4    22    18    1
     5    18    19   am
     6    19    20    2
     7    19     1    1
     8     1     2   ar
     9     2    12    1
    10    12    13   ar
    11    13    14   ar
    12    14    15   ar
    13    15    16   ar
    14    16    17   ar
    15     2     3   ar
    16     3    27    1
    17    27    28    1
    18    27    29    1
    19    29    31    1
    20    31    32   ar
    21    32    33   ar
    22    33    34   ar
    23    34    35   ar
    24    35    36    1
    25    35    37   ar
    26    37    40    1
    27    40    41    3
    28     3     4   ar
    29     4     5   ar
    30     5     6   ar
    31     6     7   ar
    32     7     8   ar
    33     8     9    1
    34     8    10   ar
    35    10    11   ar
    36    11     1   ar
    37    17    12   ar
    38    37    31   ar
    39    11     5   ar
    40    25    26    1
    41    18    21    1
    42    29    30    1
    43    36    38    1
    44    36    39    1
@<TRIPOS>MOLECULE
*****
 41 44 0 0 0
SMALL
GASTEIGER

@<TRIPOS>ATOM
      1 C          62.5169   85.6694   10.8002 C.ar    1  UNL1        0.0575
      2 C          62.7498   86.8622   11.6793 C.ar    1  UNL1        0.0372
      3 C          63.4926   86.7067   12.9732 C.ar    1  UNL1        0.0782
      4 N          64.0024   85.3584   13.3880 N.ar    1  UNL1       -0.2480
      5 C          63.7695   84.1655   12.5089 C.ar    1  UNL1        0.0812
      6 C          64.2793   82.8172   12.9236 C.ar    1  UNL1        0.0214
      7 C          64.0464   81.6244   12.0445 C.ar    1  UNL1        0.0312
      8 C          63.3037   81.7799   10.7506 C.ar    1  UNL1        0.1402
      9 F          63.0708   80.5870    9.8715 F       1  UNL1       -0.2042
     10 C          62.7938   83.1282   10.3358 C.ar    1  UNL1        0.0313
     11 C          63.0268   84.3210   11.2150 C.ar    1  UNL1        0.0243
     12 C          62.2400   88.2106   11.2646 C.ar    1  UNL1        0.0826
     13 C          63.0486   89.0642   10.3331 C.ar    1  UNL1        0.0192
     14 C          62.5388   90.4125    9.9183 C.ar    1  UNL1        0.0031
     15 C          61.2205   90.9073   10.4351 C.ar    1  UNL1        0.0207
     16 C          60.4119   90.0538   11.3666 C.ar    1  UNL1        0.0988
     17 N          60.9217   88.7055   11.7814 N.ar    1  UNL1       -0.2438
     18 N          60.3787   86.3751    9.5041 N.am    1  UNL1       -0.2995
     19 C          61.7742   85.8249    9.5063 C.2     1  UNL1        0.2460
     20 O          62.4269   85.4303    8.2148 O.2     1  UNL1       -0.2701
     21 H          59.9503   86.6341   10.3518 H       1  UNL1        0.1498
     22 C          59.6359   86.5306    8.2102 C.3     1  UNL1        0.1068
     23 C          58.9150   87.8109    7.9084 C.3     1  UNL1        0.0901
     24 C          59.3163   89.7492    6.2256 C.3     1  UNL1        0.0859
     25 N          59.6878   89.0250    7.4855 N.3     1  UNL1       -0.2949
     26 H          59.6140   89.7006    8.2461 H       1  UNL1        0.1233
     27 C          63.7255   87.8996   13.8524 C.3     1  UNL1        0.1110
     28 C          64.4213   87.7351   15.1710 C.3     1  UNL1        0.0278
     29 N          63.2626   89.2570   13.4129 N.pl3   1  UNL1       -0.3141
     30 H          62.3833   89.3618   12.9827 H       1  UNL1        0.1485
     31 C          64.1394   90.4547   13.6289 C.ar    1  UNL1        0.1429
     32 N          64.8430   91.0887   12.4657 N.ar    1  UNL1       -0.2084
     33 C          65.7198   92.2864   12.6816 C.ar    1  UNL1        0.2012
     34 N          65.8931   92.8501   14.0608 N.ar    1  UNL1       -0.2087
     35 C          65.1895   92.2162   15.2240 C.ar    1  UNL1        0.1396
     36 N          65.3627   92.7800   16.6032 N.pl3   1  UNL1       -0.3420
     37 C          64.3126   91.0184   15.0081 C.ar    1  UNL1        0.1308
     38 H          65.9382   93.5661   16.7450 H       1  UNL1        0.1437
     39 H          64.9009   92.3639   17.3667 H       1  UNL1        0.1437
     40 C          63.6090   90.3845   16.1713 C.1     1  UNL1        0.1061
     41 N          62.9055   89.7506   17.3345 N.1     1  UNL1       -0.1906
@<TRIPOS>BOND
     1    24    25    1
     2    25    23    1
     3    23    22    1
     4    22    18    1
     5    18    19   am
     6    19    20    2
     7    19     1    1
     8     1     2   ar
     9     2    12    1
    10    12    13   ar
    11    13    14   ar
    12    14    15   ar
    13    15    16   ar
    14    16    17   ar
    15     2     3   ar
    16     3    27    1
    17    27    28    1
    18    27    29    1
    19    29    31    1
    20    31    32   ar
    21    32    33   ar
    22    33    34   ar
    23    34    35   ar
    24    35    36    1
    25    35    37   ar
    26    37    40    1
    27    40    41    3
    28     3     4   ar
    29     4     5   ar
    30     5     6   ar
    31     6     7   ar
    32     7     8   ar
    33     8     9    1
    34     8    10   ar
    35    10    11   ar
    36    11     1   ar
    37    17    12   ar
    38    37    31   ar
    39    11     5   ar
    40    25    26    1
    41    18    21    1
    42    29    30    1
    43    36    38    1
    44    36    39    1
@<TRIPOS>MOLECULE
*****
 41 44 0 0 0
SMALL
GASTEIGER

@<TRIPOS>ATOM
      1 C          62.8806   89.2661   11.6506 C.ar    1  UNL1        0.0575
      2 C          63.5426   88.8505   12.9307 C.ar    1  UNL1        0.0372
      3 C          63.5128   87.4130   13.3583 C.ar    1  UNL1        0.0782
      4 N          62.8208   86.3912   12.5057 N.ar    1  UNL1       -0.2480
      5 C          62.1587   86.8068   11.2254 C.ar    1  UNL1        0.0812
      6 C          61.4667   85.7849   10.3728 C.ar    1  UNL1        0.0214
      7 C          60.8046   86.2006    9.0927 C.ar    1  UNL1        0.0312
      8 C          60.8345   87.6380    8.6651 C.ar    1  UNL1        0.1402
      9 F          60.1724   88.0536    7.3849 F       1  UNL1       -0.2042
     10 C          61.5265   88.6599    9.5177 C.ar    1  UNL1        0.0313
     11 C          62.1886   88.2442   10.7979 C.ar    1  UNL1        0.0243
     12 C          64.2346   89.8723   13.7834 C.ar    1  UNL1        0.0826
     13 C          63.5497   90.4227   14.9991 C.ar    1  UNL1        0.0192
     14 C          64.2416   91.4445   15.8518 C.ar    1  UNL1        0.0031
     15 C          65.6185   91.9160   15.4888 C.ar    1  UNL1        0.0207
     16 C          66.3035   91.3656   14.2731 C.ar    1  UNL1        0.0988
     17 N          65.6116   90.3438   13.4204 N.ar    1  UNL1       -0.2438
     18 N          64.2210   91.3716   10.9294 N.am    1  UNL1       -0.2995
     19 C          62.9104   90.7036   11.2230 C.2     1  UNL1        0.2460
     20 O          61.6298   91.4730   11.0891 O.2     1  UNL1       -0.2701
     21 H          65.0616   90.8666   11.0173 H       1  UNL1        0.1498
     22 C          64.2509   92.8091   10.5018 C.3     1  UNL1        0.1068
     23 C          65.4705   93.6432   10.7601 C.3     1  UNL1        0.0901
     24 C          67.5230   94.2938    9.3061 C.3     1  UNL1        0.0859
     25 N          66.0723   94.4552    9.6517 N.3     1  UNL1       -0.2949
     26 H          65.5426   94.2390    8.8073 H       1  UNL1        0.1233
     27 C          64.1749   86.9974   14.6385 C.3     1  UNL1        0.1110
     28 C          63.9517   87.7924   15.8908 C.3     1  UNL1        0.0278
     29 N          65.0601   85.7869   14.6665 N.pl3   1  UNL1       -0.3141
     30 H          65.9739   85.8534   15.0270 H       1  UNL1        0.1485
     31 C          64.5532   84.4749   14.1452 C.ar    1  UNL1        0.1429
     32 N          65.2448   83.8079   12.9932 N.ar    1  UNL1       -0.2084
     33 C          64.7379   82.4959   12.4719 C.ar    1  UNL1        0.2012
     34 N          63.5395   81.8509   13.1025 N.ar    1  UNL1       -0.2087
     35 C          62.8479   82.5179   14.2544 C.ar    1  UNL1        0.1396
     36 N          61.6494   81.8728   14.8850 N.pl3   1  UNL1       -0.3420
     37 C          63.3548   83.8299   14.7758 C.ar    1  UNL1        0.1308
     38 H          61.3168   81.0117   14.5429 H       1  UNL1        0.1437
     39 H          61.1955   82.3106   15.6411 H       1  UNL1        0.1437
     40 C          62.6632   84.4968   15.9277 C.1     1  UNL1        0.1061
     41 N          61.9717   85.1638   17.0795 N.1     1  UNL1       -0.1906
@<TRIPOS>BOND
     1    24    25    1
     2    25    23    1
     3    23    22    1
     4    22    18    1
     5    18    19   am
     6    19    20    2
     7    19     1    1
     8     1     2   ar
     9     2    12    1
    10    12    13   ar
    11    13    14   ar
    12    14    15   ar
    13    15    16   ar
    14    16    17   ar
    15     2     3   ar
    16     3    27    1
    17    27    28    1
    18    27    29    1
    19    29    31    1
    20    31    32   ar
    21    32    33   ar
    22    33    34   ar
    23    34    35   ar
    24    35    36    1
    25    35    37   ar
    26    37    40    1
    27    40    41    3
    28     3     4   ar
    29     4     5   ar
    30     5     6   ar
    31     6     7   ar
    32     7     8   ar
    33     8     9    1
    34     8    10   ar
    35    10    11   ar
    36    11     1   ar
    37    17    12   ar
    38    37    31   ar
    39    11     5   ar
    40    25    26    1
    41    18    21    1
    42    29    30    1
    43    36    38    1
    44    36    39    1
@<TRIPOS>MOLECULE
*****
 41 44 0 0 0
SMALL
GASTEIGER

@<TRIPOS>ATOM
      1 C          62.8647   86.2140   11.9903 C.ar    1  UNL1        0.0575
      2 C          62.9676   87.6377   12.4513 C.ar    1  UNL1        0.0372
      3 C          63.6775   87.9618   13.7322 C.ar    1  UNL1        0.0782
      4 N          64.2846   86.8623   14.5522 N.ar    1  UNL1       -0.2480
      5 C          64.1818   85.4385   14.0912 C.ar    1  UNL1        0.0812
      6 C          64.7889   84.3390   14.9112 C.ar    1  UNL1        0.0214
      7 C          64.6860   82.9153   14.4502 C.ar    1  UNL1        0.0312
      8 C          63.9760   82.5912   13.1692 C.ar    1  UNL1        0.1402
      9 F          63.8731   81.1675   12.7082 F       1  UNL1       -0.2042
     10 C          63.3689   83.6907   12.3492 C.ar    1  UNL1        0.0313
     11 C          63.4718   85.1144   12.8102 C.ar    1  UNL1        0.0243
     12 C          62.3604   88.7373   11.6313 C.ar    1  UNL1        0.0826
     13 C          63.1254   89.3268   10.4835 C.ar    1  UNL1        0.0192
     14 C          62.5183   90.4264    9.6635 C.ar    1  UNL1        0.0031
     15 C          61.1464   90.9365    9.9913 C.ar    1  UNL1        0.0207
     16 C          60.3815   90.3470   11.1391 C.ar    1  UNL1        0.0988
     17 N          60.9885   89.2474   11.9591 N.ar    1  UNL1       -0.2438
     18 N          60.8848   86.6049   10.3540 N.am    1  UNL1       -0.2995
     19 C          62.1547   85.8899   10.7093 C.2     1  UNL1        0.2460
     20 O          62.7145   84.8508    9.7837 O.2     1  UNL1       -0.2701
     21 H          60.5173   87.2869   10.9615 H       1  UNL1        0.1498
     22 C          60.1748   86.2808    9.0730 C.3     1  UNL1        0.1068
     23 C          59.0165   87.1215    8.6241 C.3     1  UNL1        0.0901
     24 C          59.3998   89.1542    7.0521 C.3     1  UNL1        0.0859
     25 N          59.0119   87.7186    7.2480 N.3     1  UNL1       -0.2949
     26 H          59.6522   87.1608    6.6829 H       1  UNL1        0.1233
     27 C          63.7804   89.3856   14.1932 C.3     1  UNL1        0.1110
     28 C          62.5588   90.1056   14.6824 C.3     1  UNL1        0.0278
     29 N          65.1048   90.0892   14.1650 N.pl3   1  UNL1       -0.3141
     30 H          65.8509   89.7563   14.7143 H       1  UNL1        0.1485
     31 C          65.2924   91.3000   13.2997 C.ar    1  UNL1        0.1429
     32 N          64.7871   91.2982   11.8873 N.ar    1  UNL1       -0.2084
     33 C          64.9747   92.5090   11.0221 C.ar    1  UNL1        0.2012
     34 N          65.6677   93.7216   11.5691 N.ar    1  UNL1       -0.2087
     35 C          66.1730   93.7235   12.9814 C.ar    1  UNL1        0.1396
     36 N          66.8660   94.9362   13.5284 N.pl3   1  UNL1       -0.3420
     37 C          65.9854   92.5127   13.8467 C.ar    1  UNL1        0.1308
     38 H          66.9892   95.7309   12.9605 H       1  UNL1        0.1437
     39 H          67.1977   94.9374   14.4553 H       1  UNL1        0.1437
     40 C          66.4908   92.5145   15.2590 C.1     1  UNL1        0.1061
     41 N          66.9961   92.5164   16.6713 N.1     1  UNL1       -0.1906
@<TRIPOS>BOND
     1    24    25    1
     2    25    23    1
     3    23    22    1
     4    22    18    1
     5    18    19   am
     6    19    20    2
     7    19     1    1
     8     1     2   ar
     9     2    12    1
    10    12    13   ar
    11    13    14   ar
    12    14    15   ar
    13    15    16   ar
    14    16    17   ar
    15     2     3   ar
    16     3    27    1
    17    27    28    1
    18    27    29    1
    19    29    31    1
    20    31    32   ar
    21    32    33   ar
    22    33    34   ar
    23    34    35   ar
    24    35    36    1
    25    35    37   ar
    26    37    40    1
    27    40    41    3
    28     3     4   ar
    29     4     5   ar
    30     5     6   ar
    31     6     7   ar
    32     7     8   ar
    33     8     9    1
    34     8    10   ar
    35    10    11   ar
    36    11     1   ar
    37    17    12   ar
    38    37    31   ar
    39    11     5   ar
    40    25    26    1
    41    18    21    1
    42    29    30    1
    43    36    38    1
    44    36    39    1
@<TRIPOS>MOLECULE
*****
 41 44 0 0 0
SMALL
GASTEIGER

@<TRIPOS>ATOM
      1 C          62.4279   85.3527   10.5346 C.ar    1  UNL1        0.0575
      2 C          62.2195   86.4095   11.5785 C.ar    1  UNL1        0.0372
      3 C          61.4130   87.6327   11.2569 C.ar    1  UNL1        0.0782
      4 N          60.8149   87.7991    9.8915 N.ar    1  UNL1       -0.2480
      5 C          61.0233   86.7423    8.8475 C.ar    1  UNL1        0.0812
      6 C          60.4251   86.9087    7.4820 C.ar    1  UNL1        0.0214
      7 C          60.6335   85.8520    6.4381 C.ar    1  UNL1        0.0312
      8 C          61.4400   84.6288    6.7597 C.ar    1  UNL1        0.1402
      9 F          61.6484   83.5720    5.7157 F       1  UNL1       -0.2042
     10 C          62.0381   84.4624    8.1251 C.ar    1  UNL1        0.0313
     11 C          61.8298   85.5191    9.1690 C.ar    1  UNL1        0.0243
     12 C          62.8176   86.2431   12.9440 C.ar    1  UNL1        0.0826
     13 C          63.9031   87.1699   13.4053 C.ar    1  UNL1        0.0192
     14 C          64.5013   87.0035   14.7708 C.ar    1  UNL1        0.0031
     15 C          64.0139   85.9104   15.6750 C.ar    1  UNL1        0.0207
     16 C          62.9284   84.9837   15.2137 C.ar    1  UNL1        0.0988
     17 N          62.3303   85.1500   13.8482 N.ar    1  UNL1       -0.2438
     18 N          62.6862   83.0949   11.7938 N.am    1  UNL1       -0.2995
     19 C          63.2344   84.1296   10.8561 C.2     1  UNL1        0.2460
     20 O          64.5890   83.9410   10.2401 O.2     1  UNL1       -0.2701
     21 H          61.7972   83.2186   12.1981 H       1  UNL1        0.1498
     22 C          63.4927   81.8717   12.1153 C.3     1  UNL1        0.1068
     23 C          63.5383   81.3517   13.5215 C.3     1  UNL1        0.0901
     24 C          61.0484   80.9042   14.1131 C.3     1  UNL1        0.0859
     25 N          62.3638   81.5503   14.4331 N.3     1  UNL1       -0.2949
     26 H          62.6436   81.2088   15.3526 H       1  UNL1        0.1233
     27 C          61.2046   88.6895   12.3009 C.3     1  UNL1        0.1110
     28 C          59.8141   89.0780   12.7077 C.3     1  UNL1        0.0278
     29 N          62.3868   89.3577   12.9381 N.pl3   1  UNL1       -0.3141
     30 H          62.6517   89.1189   13.8557 H       1  UNL1        0.1485
     31 C          63.1652   90.3896   12.1772 C.ar    1  UNL1        0.1429
     32 N          62.9644   90.5408   10.6983 N.ar    1  UNL1       -0.2084
     33 C          63.7428   91.5728    9.9374 C.ar    1  UNL1        0.2012
     34 N          64.7221   92.4536   10.6552 N.ar    1  UNL1       -0.2087
     35 C          64.9229   92.3024   12.1340 C.ar    1  UNL1        0.1396
     36 N          65.9022   93.1832   12.8518 N.pl3   1  UNL1       -0.3420
     37 C          64.1445   91.2704   12.8950 C.ar    1  UNL1        0.1308
     38 H          66.4131   93.8605   12.3524 H       1  UNL1        0.1437
     39 H          66.0340   93.0840   13.8224 H       1  UNL1        0.1437
     40 C          64.3453   91.1192   14.3738 C.1     1  UNL1        0.1061
     41 N          64.5461   90.9681   15.8525 N.1     1  UNL1       -0.1906
@<TRIPOS>BOND
     1    24    25    1
     2    25    23    1
     3    23    22    1
     4    22    18    1
     5    18    19   am
     6    19    20    2
     7    19     1    1
     8     1     2   ar
     9     2    12    1
    10    12    13   ar
    11    13    14   ar
    12    14    15   ar
    13    15    16   ar
    14    16    17   ar
    15     2     3   ar
    16     3    27    1
    17    27    28    1
    18    27    29    1
    19    29    31    1
    20    31    32   ar
    21    32    33   ar
    22    33    34   ar
    23    34    35   ar
    24    35    36    1
    25    35    37   ar
    26    37    40    1
    27    40    41    3
    28     3     4   ar
    29     4     5   ar
    30     5     6   ar
    31     6     7   ar
    32     7     8   ar
    33     8     9    1
    34     8    10   ar
    35    10    11   ar
    36    11     1   ar
    37    17    12   ar
    38    37    31   ar
    39    11     5   ar
    40    25    26    1
    41    18    21    1
    42    29    30    1
    43    36    38    1
    44    36    39    1
@<TRIPOS>MOLECULE
*****
 41 44 0 0 0
SMALL
GASTEIGER

@<TRIPOS>ATOM
      1 C          62.4784   85.4043   10.5963 C.ar    1  UNL1        0.0575
      2 C          62.4542   86.4957   11.6250 C.ar    1  UNL1        0.0372
      3 C          61.8204   87.8164   11.3025 C.ar    1  UNL1        0.0782
      4 N          61.2108   88.0457    9.9513 N.ar    1  UNL1       -0.2480
      5 C          61.2350   86.9543    8.9225 C.ar    1  UNL1        0.0812
      6 C          60.6253   87.1836    7.5714 C.ar    1  UNL1        0.0214
      7 C          60.6496   86.0922    6.5427 C.ar    1  UNL1        0.0312
      8 C          61.2834   84.7715    6.8652 C.ar    1  UNL1        0.1402
      9 F          61.3076   83.6801    5.8364 F       1  UNL1       -0.2042
     10 C          61.8930   84.5422    8.2164 C.ar    1  UNL1        0.0313
     11 C          61.8688   85.6336    9.2451 C.ar    1  UNL1        0.0243
     12 C          63.0639   86.2664   12.9763 C.ar    1  UNL1        0.0826
     13 C          64.1616   87.1638   13.4658 C.ar    1  UNL1        0.0192
     14 C          64.7712   86.9346   14.8170 C.ar    1  UNL1        0.0031
     15 C          64.2831   85.8080   15.6786 C.ar    1  UNL1        0.0207
     16 C          63.1854   84.9106   15.1891 C.ar    1  UNL1        0.0988
     17 N          62.5758   85.1398   13.8379 N.ar    1  UNL1       -0.2438
     18 N          62.3804   83.0883   11.7696 N.am    1  UNL1       -0.2995
     19 C          63.1123   84.0836   10.9188 C.2     1  UNL1        0.2460
     20 O          64.4779   83.7582   10.3906 O.2     1  UNL1       -0.2701
     21 H          61.4840   83.3019   12.1163 H       1  UNL1        0.1498
     22 C          63.0142   81.7676   12.0921 C.3     1  UNL1        0.1068
     23 C          63.4278   81.4582   13.5003 C.3     1  UNL1        0.0901
     24 C          60.9732   80.9478   14.1816 C.3     1  UNL1        0.0859
     25 N          62.4448   80.8455   14.4534 N.3     1  UNL1       -0.2949
     26 H          62.6661   79.8512   14.5059 H       1  UNL1        0.1233
     27 C          61.7962   88.9078   12.3313 C.3     1  UNL1        0.1110
     28 C          60.5351   89.1943   13.0912 C.3     1  UNL1        0.0278
     29 N          63.0331   89.7127   12.6000 N.pl3   1  UNL1       -0.3141
     30 H          63.6501   89.9278   11.8637 H       1  UNL1        0.1485
     31 C          63.3298   90.1899   13.9908 C.ar    1  UNL1        0.1429
     32 N          62.5868   89.6094   15.1574 N.ar    1  UNL1       -0.2084
     33 C          62.8836   90.0866   16.5482 C.ar    1  UNL1        0.2012
     34 N          63.9233   91.1442   16.7723 N.ar    1  UNL1       -0.2087
     35 C          64.6663   91.7247   15.6058 C.ar    1  UNL1        0.1396
     36 N          65.7060   92.7824   15.8299 N.pl3   1  UNL1       -0.3420
     37 C          64.3696   91.2476   14.2149 C.ar    1  UNL1        0.1308
     38 H          65.9008   93.0956   16.7427 H       1  UNL1        0.1437
     39 H          66.1937   93.1634   15.0642 H       1  UNL1        0.1437
     40 C          65.1125   91.8281   13.0484 C.1     1  UNL1        0.1061
     41 N          65.8555   92.4086   11.8818 N.1     1  UNL1       -0.1906
@<TRIPOS>BOND
     1    24    25    1
     2    25    23    1
     3    23    22    1
     4    22    18    1
     5    18    19   am
     6    19    20    2
     7    19     1    1
     8     1     2   ar
     9     2    12    1
    10    12    13   ar
    11    13    14   ar
    12    14    15   ar
    13    15    16   ar
    14    16    17   ar
    15     2     3   ar
    16     3    27    1
    17    27    28    1
    18    27    29    1
    19    29    31    1
    20    31    32   ar
    21    32    33   ar
    22    33    34   ar
    23    34    35   ar
    24    35    36    1
    25    35    37   ar
    26    37    40    1
    27    40    41    3
    28     3     4   ar
    29     4     5   ar
    30     5     6   ar
    31     6     7   ar
    32     7     8   ar
    33     8     9    1
    34     8    10   ar
    35    10    11   ar
    36    11     1   ar
    37    17    12   ar
    38    37    31   ar
    39    11     5   ar
    40    25    26    1
    41    18    21    1
    42    29    30    1
    43    36    38    1
    44    36    39    1
@<TRIPOS>MOLECULE
*****
 41 44 0 0 0
SMALL
GASTEIGER

@<TRIPOS>ATOM
      1 C          62.4685   85.9366   11.4073 C.ar    1  UNL1        0.0575
      2 C          63.0529   86.6788   12.5725 C.ar    1  UNL1        0.0372
      3 C          62.9180   88.1704   12.6556 C.ar    1  UNL1        0.0782
      4 N          62.1987   88.9198   11.5735 N.ar    1  UNL1       -0.2480
      5 C          61.6143   88.1776   10.4082 C.ar    1  UNL1        0.0812
      6 C          60.8950   88.9270    9.3262 C.ar    1  UNL1        0.0214
      7 C          60.3106   88.1848    8.1610 C.ar    1  UNL1        0.0312
      8 C          60.4455   86.6932    8.0779 C.ar    1  UNL1        0.1402
      9 F          59.8611   85.9511    6.9127 F       1  UNL1       -0.2042
     10 C          61.1648   85.9438    9.1600 C.ar    1  UNL1        0.0313
     11 C          61.7492   86.6860   10.3252 C.ar    1  UNL1        0.0243
     12 C          63.7722   85.9293   13.6546 C.ar    1  UNL1        0.0826
     13 C          65.2262   85.5959   13.4968 C.ar    1  UNL1        0.0192
     14 C          65.9455   84.8465   14.5789 C.ar    1  UNL1        0.0031
     15 C          65.2109   84.4306   15.8188 C.ar    1  UNL1        0.0207
     16 C          63.7570   84.7640   15.9766 C.ar    1  UNL1        0.0988
     17 N          63.0377   85.5134   14.8945 N.ar    1  UNL1       -0.2438
     18 N          62.2062   83.5898   12.4909 N.am    1  UNL1       -0.2995
     19 C          62.6035   84.4450   11.3242 C.2     1  UNL1        0.2460
     20 O          63.1356   83.8085   10.0746 O.2     1  UNL1       -0.2701
     21 H          61.8569   84.0076   13.3111 H       1  UNL1        0.1498
     22 C          62.3411   82.0982   12.4078 C.3     1  UNL1        0.1068
     23 C          62.8516   81.3245   13.5871 C.3     1  UNL1        0.0901
     24 C          60.4338   80.6039   14.2077 C.3     1  UNL1        0.0859
     25 N          61.8857   80.7236   14.5649 N.3     1  UNL1       -0.2949
     26 H          62.2183   79.7805   14.7655 H       1  UNL1        0.1233
     27 C          63.5024   88.9126   13.8208 C.3     1  UNL1        0.1110
     28 C          64.3618   88.1900   14.8154 C.3     1  UNL1        0.0278
     29 N          63.2273   90.3772   13.9913 N.pl3   1  UNL1       -0.3141
     30 H          62.2996   90.7066   13.9961 H       1  UNL1        0.1485
     31 C          64.3659   91.3400   14.1546 C.ar    1  UNL1        0.1429
     32 N          64.9390   91.5999   15.5163 N.ar    1  UNL1       -0.2084
     33 C          66.0775   92.5627   15.6796 C.ar    1  UNL1        0.2012
     34 N          66.6430   93.2657   14.4812 N.ar    1  UNL1       -0.2087
     35 C          66.0699   93.0059   13.1196 C.ar    1  UNL1        0.1396
     36 N          66.6354   93.7089   11.9213 N.pl3   1  UNL1       -0.3420
     37 C          64.9313   92.0430   12.9563 C.ar    1  UNL1        0.1308
     38 H          67.3826   94.3409   12.0285 H       1  UNL1        0.1437
     39 H          66.2592   93.5384   11.0276 H       1  UNL1        0.1437
     40 C          64.3583   91.7832   11.5947 C.1     1  UNL1        0.1061
     41 N          63.7852   91.5234   10.2330 N.1     1  UNL1       -0.1906
@<TRIPOS>BOND
     1    24    25    1
     2    25    23    1
     3    23    22    1
     4    22    18    1
     5    18    19   am
     6    19    20    2
     7    19     1    1
     8     1     2   ar
     9     2    12    1
    10    12    13   ar
    11    13    14   ar
    12    14    15   ar
    13    15    16   ar
    14    16    17   ar
    15     2     3   ar
    16     3    27    1
    17    27    28    1
    18    27    29    1
    19    29    31    1
    20    31    32   ar
    21    32    33   ar
    22    33    34   ar
    23    34    35   ar
    24    35    36    1
    25    35    37   ar
    26    37    40    1
    27    40    41    3
    28     3     4   ar
    29     4     5   ar
    30     5     6   ar
    31     6     7   ar
    32     7     8   ar
    33     8     9    1
    34     8    10   ar
    35    10    11   ar
    36    11     1   ar
    37    17    12   ar
    38    37    31   ar
    39    11     5   ar
    40    25    26    1
    41    18    21    1
    42    29    30    1
    43    36    38    1
    44    36    39    1
@<TRIPOS>MOLECULE
*****
 41 44 0 0 0
SMALL
GASTEIGER

@<TRIPOS>ATOM
      1 C          61.7175   88.5628   10.4894 C.ar    1  UNL1        0.0575
      2 C          62.2660   87.5771   11.4780 C.ar    1  UNL1        0.0372
      3 C          61.9954   86.1119   11.3050 C.ar    1  UNL1        0.0782
      4 N          61.1764   85.6324   10.1435 N.ar    1  UNL1       -0.2480
      5 C          60.6279   86.6181    9.1548 C.ar    1  UNL1        0.0812
      6 C          59.8088   86.1387    7.9932 C.ar    1  UNL1        0.0214
      7 C          59.2603   87.1244    7.0046 C.ar    1  UNL1        0.0312
      8 C          59.5309   88.5896    7.1776 C.ar    1  UNL1        0.1402
      9 F          58.9823   89.5754    6.1889 F       1  UNL1       -0.2042
     10 C          60.3499   89.0691    8.3391 C.ar    1  UNL1        0.0313
     11 C          60.8984   88.0834    9.3277 C.ar    1  UNL1        0.0243
     12 C          63.0850   88.0566   12.6396 C.ar    1  UNL1        0.0826
     13 C          63.8814   87.0777   13.4505 C.ar    1  UNL1        0.0192
     14 C          64.7005   87.5571   14.6121 C.ar    1  UNL1        0.0031
     15 C          64.7231   89.0153   14.9628 C.ar    1  UNL1        0.0207
     16 C          63.9267   89.9942   14.1518 C.ar    1  UNL1        0.0988
     17 N          63.1077   89.5148   12.9902 N.ar    1  UNL1       -0.2438
     18 N          63.3332   90.5893   10.3080 N.am    1  UNL1       -0.2995
     19 C          61.9880   90.0281   10.6623 C.2     1  UNL1        0.2460
     20 O          60.9134   90.9321   11.1895 O.2     1  UNL1       -0.2701
     21 H          64.0385   89.9960    9.9619 H       1  UNL1        0.1498
     22 C          63.6037   92.0546   10.4809 C.3     1  UNL1        0.1068
     23 C          64.9823   92.5257   10.8378 C.3     1  UNL1        0.0901
     24 C          66.0339   94.9007   10.8973 C.3     1  UNL1        0.0859
     25 N          65.5830   93.6987   10.1214 N.3     1  UNL1       -0.2949
     26 H          66.3988   93.3501    9.6181 H       1  UNL1        0.1233
     27 C          62.5440   85.1261   12.2937 C.3     1  UNL1        0.1110
     28 C          61.9863   85.0700   13.6851 C.3     1  UNL1        0.0278
     29 N          63.6501   84.1965   11.8910 N.pl3   1  UNL1       -0.3141
     30 H          64.5523   84.5506   11.7183 H       1  UNL1        0.1485
     31 C          63.3816   82.7273   11.7515 C.ar    1  UNL1        0.1429
     32 N          63.2511   82.1149   10.3884 N.ar    1  UNL1       -0.2084
     33 C          62.9826   80.6457   10.2489 C.ar    1  UNL1        0.2012
     34 N          62.8445   79.7890   11.4724 N.ar    1  UNL1       -0.2087
     35 C          62.9750   80.4014   12.8354 C.ar    1  UNL1        0.1396
     36 N          62.8370   79.5447   14.0589 N.pl3   1  UNL1       -0.3420
     37 C          63.2435   81.8706   12.9750 C.ar    1  UNL1        0.1308
     38 H          62.6607   78.5804   13.9673 H       1  UNL1        0.1437
     39 H          62.9226   79.9466   14.9535 H       1  UNL1        0.1437
     40 C          63.3740   82.4830   14.3380 C.1     1  UNL1        0.1061
     41 N          63.5045   83.0954   15.7011 N.1     1  UNL1       -0.1906
@<TRIPOS>BOND
     1    24    25    1
     2    25    23    1
     3    23    22    1
     4    22    18    1
     5    18    19   am
     6    19    20    2
     7    19     1    1
     8     1     2   ar
     9     2    12    1
    10    12    13   ar
    11    13    14   ar
    12    14    15   ar
    13    15    16   ar
    14    16    17   ar
    15     2     3   ar
    16     3    27    1
    17    27    28    1
    18    27    29    1
    19    29    31    1
    20    31    32   ar
    21    32    33   ar
    22    33    34   ar
    23    34    35   ar
    24    35    36    1
    25    35    37   ar
    26    37    40    1
    27    40    41    3
    28     3     4   ar
    29     4     5   ar
    30     5     6   ar
    31     6     7   ar
    32     7     8   ar
    33     8     9    1
    34     8    10   ar
    35    10    11   ar
    36    11     1   ar
    37    17    12   ar
    38    37    31   ar
    39    11     5   ar
    40    25    26    1
    41    18    21    1
    42    29    30    1
    43    36    38    1
    44    36    39    1
@<TRIPOS>MOLECULE
*****
 41 44 0 0 0
SMALL
GASTEIGER

@<TRIPOS>ATOM
      1 C          62.4717   85.9982   11.6344 C.ar    1  UNL1        0.0575
      2 C          63.0898   86.8886   12.6712 C.ar    1  UNL1        0.0372
      3 C          63.0220   88.3791   12.5167 C.ar    1  UNL1        0.0782
      4 N          62.3362   88.9792   11.3253 N.ar    1  UNL1       -0.2480
      5 C          61.7180   88.0888   10.2884 C.ar    1  UNL1        0.0812
      6 C          61.0322   88.6889    9.0970 C.ar    1  UNL1        0.0214
      7 C          60.4141   87.7985    8.0601 C.ar    1  UNL1        0.0312
      8 C          60.4819   86.3081    8.2146 C.ar    1  UNL1        0.1402
      9 F          59.8637   85.4177    7.1777 F       1  UNL1       -0.2042
     10 C          61.1677   85.7080    9.4060 C.ar    1  UNL1        0.0313
     11 C          61.7858   86.5983   10.4429 C.ar    1  UNL1        0.0243
     12 C          63.7756   86.2885   13.8627 C.ar    1  UNL1        0.0826
     13 C          65.1547   85.7148   13.7241 C.ar    1  UNL1        0.0192
     14 C          65.8405   85.1148   14.9155 C.ar    1  UNL1        0.0031
     15 C          65.1474   85.0884   16.2454 C.ar    1  UNL1        0.0207
     16 C          63.7684   85.6620   16.3840 C.ar    1  UNL1        0.0988
     17 N          63.0825   86.2621   15.1927 N.ar    1  UNL1       -0.2438
     18 N          63.3200   83.6865   10.8058 N.am    1  UNL1       -0.2995
     19 C          62.5394   84.5078   11.7889 C.2     1  UNL1        0.2460
     20 O          61.8266   83.8385   12.9264 O.2     1  UNL1       -0.2701
     21 H          63.7878   84.1258   10.0592 H       1  UNL1        0.1498
     22 C          63.3878   82.1961   10.9603 C.3     1  UNL1        0.1068
     23 C          64.1933   81.5932   12.0728 C.3     1  UNL1        0.0901
     24 C          62.3074   80.3116   13.3180 C.3     1  UNL1        0.0859
     25 N          63.5218   81.1912   13.3524 N.3     1  UNL1       -0.2949
     26 H          64.2221   80.7046   13.9121 H       1  UNL1        0.1233
     27 C          63.6401   89.2695   13.5537 C.3     1  UNL1        0.1110
     28 C          64.4373   88.6730   14.6756 C.3     1  UNL1        0.0278
     29 N          63.4611   90.7563   13.4687 N.pl3   1  UNL1       -0.3141
     30 H          62.5737   91.1547   13.6204 H       1  UNL1        0.1485
     31 C          64.6341   91.6360   13.1525 C.ar    1  UNL1        0.1429
     32 N          65.0614   91.8333   11.7282 N.ar    1  UNL1       -0.2084
     33 C          66.2344   92.7131   11.4120 C.ar    1  UNL1        0.2012
     34 N          66.9803   93.3956   12.5201 N.ar    1  UNL1       -0.2087
     35 C          66.5531   93.1983   13.9444 C.ar    1  UNL1        0.1396
     36 N          67.2989   93.8808   15.0525 N.pl3   1  UNL1       -0.3420
     37 C          65.3800   92.3185   14.2606 C.ar    1  UNL1        0.1308
     38 H          68.0689   94.4582   14.8450 H       1  UNL1        0.1437
     39 H          67.0186   93.7514   15.9873 H       1  UNL1        0.1437
     40 C          64.9528   92.1213   15.6849 C.1     1  UNL1        0.1061
     41 N          64.5257   91.9240   17.1091 N.1     1  UNL1       -0.1906
@<TRIPOS>BOND
     1    24    25    1
     2    25    23    1
     3    23    22    1
     4    22    18    1
     5    18    19   am
     6    19    20    2
     7    19     1    1
     8     1     2   ar
     9     2    12    1
    10    12    13   ar
    11    13    14   ar
    12    14    15   ar
    13    15    16   ar
    14    16    17   ar
    15     2     3   ar
    16     3    27    1
    17    27    28    1
    18    27    29    1
    19    29    31    1
    20    31    32   ar
    21    32    33   ar
    22    33    34   ar
    23    34    35   ar
    24    35    36    1
    25    35    37   ar
    26    37    40    1
    27    40    41    3
    28     3     4   ar
    29     4     5   ar
    30     5     6   ar
    31     6     7   ar
    32     7     8   ar
    33     8     9    1
    34     8    10   ar
    35    10    11   ar
    36    11     1   ar
    37    17    12   ar
    38    37    31   ar
    39    11     5   ar
    40    25    26    1
    41    18    21    1
    42    29    30    1
    43    36    38    1
    44    36    39    1
