@<TRIPOS>MOLECULE
*****
 23 25 0 0 0
SMALL
GASTEIGER

@<TRIPOS>ATOM
      1 C          63.4995   89.2619   13.1582 C.3     1  UNL1        0.0061
      2 C          64.4054   90.0496   14.0577 C.3     1  UNL1        0.0373
      3 C          65.1779   90.4503   15.2794 C.3     1  UNL1        0.0075
      4 C          66.0198   91.6916   15.2607 C.3     1  UNL1        0.0219
      5 C          66.0894   92.5321   14.0203 C.3     1  UNL1        0.0950
      6 N          65.3169   92.1314   12.7985 N.am    1  UNL1       -0.2637
      7 C          65.3864   92.9719   11.5580 C.2     1  UNL1        0.3077
      8 O          64.6139   92.5711   10.3363 O.2     1  UNL1       -0.2522
      9 N          66.2284   94.2131   11.5394 N.am    1  UNL1       -0.2680
     10 C          64.4749   90.8901   12.8172 C.3     1  UNL1        0.0989
     11 H          66.7354   94.4762   12.3412 H       1  UNL1        0.1564
     12 C          64.0213   88.9355   14.9858 C.ar    1  UNL1       -0.0212
     13 C          63.2976   89.2399   16.2639 C.ar    1  UNL1       -0.0042
     14 C          62.9135   88.1259   17.1919 C.ar    1  UNL1       -0.0003
     15 C          63.2531   86.7074   16.8418 C.ar    1  UNL1       -0.0000
     16 C          63.9767   86.4029   15.5637 C.ar    1  UNL1       -0.0003
     17 C          64.3608   87.5170   14.6357 C.ar    1  UNL1       -0.0042
     18 C          66.2978   95.0536   10.2989 C.ar    1  UNL1        0.0547
     19 C          67.4758   94.9350    9.3777 C.ar    1  UNL1        0.0354
     20 C          67.5453   95.7754    8.1373 C.ar    1  UNL1        0.1002
     21 N          66.4369   96.7344    7.8179 N.ar    1  UNL1       -0.2422
     22 C          65.2590   96.8529    8.7390 C.ar    1  UNL1        0.1002
     23 C          65.1895   96.0125    9.9795 C.ar    1  UNL1        0.0354
@<TRIPOS>BOND
     1     1     2    1
     2     2    12    1
     3    12    13   ar
     4    13    14   ar
     5    14    15   ar
     6    15    16   ar
     7    16    17   ar
     8     2     3    1
     9     3     4    1
    10     4     5    1
    11     5     6    1
    12     6     7   am
    13     7     8    2
    14     7     9   am
    15     9    18    1
    16    18    19   ar
    17    19    20   ar
    18    20    21   ar
    19    21    22   ar
    20    22    23   ar
    21     6    10    1
    22    10     2    1
    23    17    12   ar
    24    23    18   ar
    25     9    11    1
@<TRIPOS>MOLECULE
*****
 23 25 0 0 0
SMALL
GASTEIGER

@<TRIPOS>ATOM
      1 C          64.8317   90.1398   14.4445 C.3     1  UNL1        0.0061
      2 C          64.9690   91.0953   13.2964 C.3     1  UNL1        0.0373
      3 C          65.4454   92.2619   12.4828 C.3     1  UNL1        0.0075
      4 C          64.8979   92.4889   11.1049 C.3     1  UNL1        0.0219
      5 C          63.8739   91.5491   10.5406 C.3     1  UNL1        0.0950
      6 N          63.3975   90.3825   11.3542 N.am    1  UNL1       -0.2637
      7 C          62.3735   89.4428   10.7899 C.2     1  UNL1        0.3077
      8 O          61.8971   88.2762   11.6036 O.2     1  UNL1       -0.2522
      9 N          61.8259   89.6697    9.4120 N.am    1  UNL1       -0.2680
     10 C          63.9450   90.1556   12.7321 C.3     1  UNL1        0.0989
     11 H          62.1386   90.4354    8.8780 H       1  UNL1        0.1564
     12 C          65.9453   91.7032   14.2595 C.ar    1  UNL1       -0.0212
     13 C          65.4891   92.1224   15.6255 C.ar    1  UNL1       -0.0042
     14 C          66.4654   92.7303   16.5885 C.ar    1  UNL1       -0.0003
     15 C          67.8979   92.9188   16.1854 C.ar    1  UNL1       -0.0000
     16 C          68.3541   92.4996   14.8194 C.ar    1  UNL1       -0.0003
     17 C          67.3778   91.8918   13.8564 C.ar    1  UNL1       -0.0042
     18 C          60.8020   88.7300    8.8478 C.ar    1  UNL1        0.0547
     19 C          59.6965   89.2574    7.9818 C.ar    1  UNL1        0.0354
     20 C          58.6726   88.3178    7.4176 C.ar    1  UNL1        0.1002
     21 N          58.7539   86.8506    7.7193 N.ar    1  UNL1       -0.2422
     22 C          59.8593   86.3232    8.5852 C.ar    1  UNL1        0.1002
     23 C          60.8834   87.2629    9.1495 C.ar    1  UNL1        0.0354
@<TRIPOS>BOND
     1     1     2    1
     2     2    12    1
     3    12    13   ar
     4    13    14   ar
     5    14    15   ar
     6    15    16   ar
     7    16    17   ar
     8     2     3    1
     9     3     4    1
    10     4     5    1
    11     5     6    1
    12     6     7   am
    13     7     8    2
    14     7     9   am
    15     9    18    1
    16    18    19   ar
    17    19    20   ar
    18    20    21   ar
    19    21    22   ar
    20    22    23   ar
    21     6    10    1
    22    10     2    1
    23    17    12   ar
    24    23    18   ar
    25     9    11    1
@<TRIPOS>MOLECULE
*****
 23 25 0 0 0
SMALL
GASTEIGER

@<TRIPOS>ATOM
      1 C          64.0792   83.0066   13.7815 C.3     1  UNL1        0.0061
      2 C          63.3681   83.7413   12.6839 C.3     1  UNL1        0.0373
      3 C          62.5762   83.9845   11.4335 C.3     1  UNL1        0.0075
      4 C          62.2641   85.3875   11.0043 C.3     1  UNL1        0.0219
      5 C          62.7441   86.5473   11.8257 C.3     1  UNL1        0.0950
      6 N          63.5360   86.3041   13.0761 N.am    1  UNL1       -0.2637
      7 C          64.0160   87.4639   13.8974 C.2     1  UNL1        0.3077
      8 O          64.8080   87.2206   15.1478 O.2     1  UNL1       -0.2522
      9 N          63.7039   88.8669   13.4683 N.am    1  UNL1       -0.2680
     10 C          63.8481   84.9011   13.5052 C.3     1  UNL1        0.0989
     11 H          63.1841   89.0266   12.6476 H       1  UNL1        0.1564
     12 C          63.1352   82.3263   12.2438 C.ar    1  UNL1       -0.0212
     13 C          63.3798   81.9348   10.8166 C.ar    1  UNL1       -0.0042
     14 C          63.1468   80.5199   10.3765 C.ar    1  UNL1       -0.0003
     15 C          62.6692   79.4965   11.3637 C.ar    1  UNL1       -0.0000
     16 C          62.4245   79.8879   12.7908 C.ar    1  UNL1       -0.0003
     17 C          62.6575   81.3029   13.2309 C.ar    1  UNL1       -0.0042
     18 C          64.1839   90.0266   14.2896 C.ar    1  UNL1        0.0547
     19 C          63.5661   90.3044   15.6281 C.ar    1  UNL1        0.0354
     20 C          64.0460   91.4640   16.4494 C.ar    1  UNL1        0.1002
     21 N          65.1437   92.3461   15.9325 N.ar    1  UNL1       -0.2422
     22 C          65.7615   92.0683   14.5941 C.ar    1  UNL1        0.1002
     23 C          65.2815   90.9086   13.7727 C.ar    1  UNL1        0.0354
@<TRIPOS>BOND
     1     1     2    1
     2     2    12    1
     3    12    13   ar
     4    13    14   ar
     5    14    15   ar
     6    15    16   ar
     7    16    17   ar
     8     2     3    1
     9     3     4    1
    10     4     5    1
    11     5     6    1
    12     6     7   am
    13     7     8    2
    14     7     9   am
    15     9    18    1
    16    18    19   ar
    17    19    20   ar
    18    20    21   ar
    19    21    22   ar
    20    22    23   ar
    21     6    10    1
    22    10     2    1
    23    17    12   ar
    24    23    18   ar
    25     9    11    1
@<TRIPOS>MOLECULE
*****
 23 25 0 0 0
SMALL
GASTEIGER

@<TRIPOS>ATOM
      1 C          61.4263   89.0966    9.4177 C.3     1  UNL1        0.0061
      2 C          61.8619   87.9446   10.2739 C.3     1  UNL1        0.0373
      3 C          62.0320   86.5366   10.7623 C.3     1  UNL1        0.0075
      4 C          62.8153   86.2659   12.0125 C.3     1  UNL1        0.0219
      5 C          63.4286   87.4032   12.7744 C.3     1  UNL1        0.0950
      6 N          63.2585   88.8112   12.2860 N.am    1  UNL1       -0.2637
      7 C          63.8717   89.9486   13.0479 C.2     1  UNL1        0.3077
      8 O          63.7016   91.3566   12.5595 O.2     1  UNL1       -0.2522
      9 N          64.6550   89.6778   14.2981 N.am    1  UNL1       -0.2680
     10 C          62.4751   89.0819   11.0358 C.3     1  UNL1        0.0989
     11 H          64.7667   88.7537   14.6187 H       1  UNL1        0.1564
     12 C          61.0973   87.2073    9.2147 C.ar    1  UNL1       -0.0212
     13 C          59.6690   87.5680    8.9325 C.ar    1  UNL1       -0.0042
     14 C          58.9045   86.8308    7.8733 C.ar    1  UNL1       -0.0003
     15 C          59.5684   85.7329    7.0962 C.ar    1  UNL1       -0.0000
     16 C          60.9967   85.3722    7.3784 C.ar    1  UNL1       -0.0003
     17 C          61.7612   86.1094    8.4376 C.ar    1  UNL1       -0.0042
     18 C          65.2682   90.8152   15.0599 C.ar    1  UNL1        0.0547
     19 C          66.6796   91.2351   14.7737 C.ar    1  UNL1        0.0354
     20 C          67.2929   92.3724   15.5354 C.ar    1  UNL1        0.1002
     21 N          66.4948   93.0899   16.5834 N.ar    1  UNL1       -0.2422
     22 C          65.0835   92.6701   16.8697 C.ar    1  UNL1        0.1002
     23 C          64.4702   91.5327   16.1079 C.ar    1  UNL1        0.0354
@<TRIPOS>BOND
     1     1     2    1
     2     2    12    1
     3    12    13   ar
     4    13    14   ar
     5    14    15   ar
     6    15    16   ar
     7    16    17   ar
     8     2     3    1
     9     3     4    1
    10     4     5    1
    11     5     6    1
    12     6     7   am
    13     7     8    2
    14     7     9   am
    15     9    18    1
    16    18    19   ar
    17    19    20   ar
    18    20    21   ar
    19    21    22   ar
    20    22    23   ar
    21     6    10    1
    22    10     2    1
    23    17    12   ar
    24    23    18   ar
    25     9    11    1
@<TRIPOS>MOLECULE
*****
 23 25 0 0 0
SMALL
GASTEIGER

@<TRIPOS>ATOM
      1 C          62.9476   83.5025   11.0534 C.3     1  UNL1        0.0061
      2 C          63.2610   83.1370   12.4740 C.3     1  UNL1        0.0373
      3 C          63.5127   82.2962   13.6904 C.3     1  UNL1        0.0075
      4 C          63.8329   82.9508   15.0015 C.3     1  UNL1        0.0219
      5 C          63.9014   84.4463   15.0961 C.3     1  UNL1        0.0950
      6 N          63.6497   85.2871   13.8797 N.am    1  UNL1       -0.2637
      7 C          63.7181   86.7825   13.9744 C.2     1  UNL1        0.3077
      8 O          63.4664   87.6233   12.7579 O.2     1  UNL1       -0.2522
      9 N          64.0383   87.4372   15.2854 N.am    1  UNL1       -0.2680
     10 C          63.3294   84.6324   12.5687 C.3     1  UNL1        0.0989
     11 H          64.2036   86.8854   16.0838 H       1  UNL1        0.1564
     12 C          63.0837   81.7684   11.8860 C.ar    1  UNL1       -0.0212
     13 C          63.3223   81.5444   10.4222 C.ar    1  UNL1       -0.0042
     14 C          63.1450   80.1760    9.8342 C.ar    1  UNL1       -0.0003
     15 C          62.7290   79.0315   10.7100 C.ar    1  UNL1       -0.0000
     16 C          62.4903   79.2554   12.1738 C.ar    1  UNL1       -0.0003
     17 C          62.6677   80.6239   12.7618 C.ar    1  UNL1       -0.0042
     18 C          64.1068   88.9326   15.3800 C.ar    1  UNL1        0.0547
     19 C          64.9372   89.7087   14.4011 C.ar    1  UNL1        0.0354
     20 C          65.0057   91.2041   14.4956 C.ar    1  UNL1        0.1002
     21 N          64.2439   91.9235   15.5689 N.ar    1  UNL1       -0.2422
     22 C          63.4135   91.1475   16.5478 C.ar    1  UNL1        0.1002
     23 C          63.3450   89.6520   16.4533 C.ar    1  UNL1        0.0354
@<TRIPOS>BOND
     1     1     2    1
     2     2    12    1
     3    12    13   ar
     4    13    14   ar
     5    14    15   ar
     6    15    16   ar
     7    16    17   ar
     8     2     3    1
     9     3     4    1
    10     4     5    1
    11     5     6    1
    12     6     7   am
    13     7     8    2
    14     7     9   am
    15     9    18    1
    16    18    19   ar
    17    19    20   ar
    18    20    21   ar
    19    21    22   ar
    20    22    23   ar
    21     6    10    1
    22    10     2    1
    23    17    12   ar
    24    23    18   ar
    25     9    11    1
@<TRIPOS>MOLECULE
*****
 23 25 0 0 0
SMALL
GASTEIGER

@<TRIPOS>ATOM
      1 C          62.4808   84.1810   12.0295 C.3     1  UNL1        0.0061
      2 C          63.0637   84.2141   13.4113 C.3     1  UNL1        0.0373
      3 C          63.5037   83.7470   14.7670 C.3     1  UNL1        0.0075
      4 C          64.1527   84.7089   15.7176 C.3     1  UNL1        0.0219
      5 C          64.3616   86.1380   15.3124 C.3     1  UNL1        0.0950
      6 N          63.9215   86.6051   13.9566 N.am    1  UNL1       -0.2637
      7 C          64.1304   88.0342   13.5514 C.2     1  UNL1        0.3077
      8 O          63.6904   88.5012   12.1956 O.2     1  UNL1       -0.2522
      9 N          64.7794   88.9961   14.5020 N.am    1  UNL1       -0.2680
     10 C          63.2726   85.6432   13.0060 C.3     1  UNL1        0.0989
     11 H          65.0682   88.6895   15.3918 H       1  UNL1        0.1564
     12 C          62.6523   82.7735   13.3366 C.ar    1  UNL1       -0.0212
     13 C          63.2023   81.8916   12.2551 C.ar    1  UNL1       -0.0042
     14 C          62.7909   80.4511   12.1804 C.ar    1  UNL1       -0.0003
     15 C          61.8296   79.8925   13.1873 C.ar    1  UNL1       -0.0000
     16 C          61.2796   80.7744   14.2689 C.ar    1  UNL1       -0.0003
     17 C          61.6910   82.2149   14.3435 C.ar    1  UNL1       -0.0042
     18 C          64.9882   90.4251   14.0967 C.ar    1  UNL1        0.0547
     19 C          64.4462   90.9205   12.7887 C.ar    1  UNL1        0.0354
     20 C          64.6550   92.3495   12.3833 C.ar    1  UNL1        0.1002
     21 N          65.4058   93.2831   13.2859 N.ar    1  UNL1       -0.2422
     22 C          65.9479   92.7877   14.5939 C.ar    1  UNL1        0.1002
     23 C          65.7391   91.3586   14.9992 C.ar    1  UNL1        0.0354
@<TRIPOS>BOND
     1     1     2    1
     2     2    12    1
     3    12    13   ar
     4    13    14   ar
     5    14    15   ar
     6    15    16   ar
     7    16    17   ar
     8     2     3    1
     9     3     4    1
    10     4     5    1
    11     5     6    1
    12     6     7   am
    13     7     8    2
    14     7     9   am
    15     9    18    1
    16    18    19   ar
    17    19    20   ar
    18    20    21   ar
    19    21    22   ar
    20    22    23   ar
    21     6    10    1
    22    10     2    1
    23    17    12   ar
    24    23    18   ar
    25     9    11    1
