@<TRIPOS>MOLECULE
*****
 44 48 0 0 0
SMALL
GASTEIGER

@<TRIPOS>ATOM
      1 N          64.2029   90.5506   13.2423 N.am    1  UNL1       -0.2770
      2 C          63.0246   90.0297   12.4741 C.2     1  UNL1        0.2253
      3 O          62.0856   89.0504   13.1138 O.2     1  UNL1       -0.2749
      4 C          62.7854   90.4881   11.0660 C.3     1  UNL1        0.0750
      5 C          62.1424   90.6227    9.7175 C.3     1  UNL1        0.0095
      6 C          63.7244   91.4674   10.4263 C.3     1  UNL1        0.0153
      7 C          64.9027   91.9883   11.1946 C.3     1  UNL1        0.0452
      8 C          65.1419   91.5298   12.6026 C.3     1  UNL1        0.1018
      9 C          65.8417   92.9676   10.5549 C.ar    1  UNL1       -0.0197
     10 C          67.1479   92.4944    9.9893 C.ar    1  UNL1       -0.0042
     11 C          68.0869   93.4737    9.3496 C.ar    1  UNL1        0.0005
     12 C          67.7197   94.9261    9.2754 C.ar    1  UNL1        0.0114
     13 C          66.4135   95.3993    9.8410 C.ar    1  UNL1        0.0574
     14 CL         66.0463   96.8518    9.7669 Cl      1  UNL1       -0.0823
     15 C          65.4745   94.4200   10.4807 C.ar    1  UNL1        0.0072
     16 C          66.3203   92.0507   13.3710 C.ar    1  UNL1       -0.0039
     17 C          67.6100   91.2848   13.3764 C.ar    1  UNL1       -0.0018
     18 C          68.7883   91.8056   14.1448 C.ar    1  UNL1        0.0111
     19 C          68.6769   93.0924   14.9077 C.ar    1  UNL1        0.0577
     20 CL         69.8552   93.6132   15.6760 Cl      1  UNL1       -0.0822
     21 C          67.3872   93.8582   14.9022 C.ar    1  UNL1        0.0111
     22 C          66.2088   93.3374   14.1338 C.ar    1  UNL1       -0.0018
     23 C          64.4422   90.0921   14.6504 C.3     1  UNL1        0.0991
     24 C          64.1419   91.0091   15.7989 C.3     1  UNL1        0.0200
     25 C          64.5908   92.0477   16.7837 C.3     1  UNL1        0.0018
     26 C          63.1729   91.5586   16.8034 C.3     1  UNL1        0.0018
     27 C          64.9818   88.7169   14.9100 C.3     1  UNL1        0.1703
     28 S          64.1202   87.6870   15.5786 S.O2    1  UNL1       -0.0115
     29 O          64.9594   86.5968   14.9810 O.2     1  UNL1       -0.1730
     30 O          63.2809   88.7771   16.1762 O.2     1  UNL1       -0.1730
     31 C          63.6974   85.6360   15.2399 C.3     1  UNL1        0.0236
     32 C          63.2586   86.6571   16.2472 C.3     1  UNL1        0.1108
     33 C          62.8198   87.6782   17.2545 C.3     1  UNL1        0.0236
     34 C          62.3970   85.6273   16.9158 C.3     1  UNL1        0.0236
     35 C          61.6230   89.5556   11.2373 C.3     1  UNL1        0.0544
     36 C          61.2834   88.5736   10.1555 C.ar    1  UNL1        0.0595
     37 C          62.1740   87.3920    9.9086 C.ar    1  UNL1        0.0159
     38 C          61.8343   86.4101    8.8268 C.ar    1  UNL1        0.0167
     39 C          60.6043   86.6096    7.9919 C.ar    1  UNL1        0.0218
     40 C          59.7138   87.7912    8.2388 C.ar    1  UNL1        0.0985
     41 N          60.0533   88.7732    9.3206 N.ar    1  UNL1       -0.2481
     42 C          62.7248   85.2284    8.5799 C.2     1  UNL1        0.0730
     43 O          62.9682   84.7528    7.1783 O.co2   1  UNL1       -0.5446
     44 O          63.3716   84.5225    9.7345 O.co2   1  UNL1       -0.5446
@<TRIPOS>UNITY_ATOM_ATTR
43 1
charge -1
@<TRIPOS>BOND
     1    31    32    1
     2    32    33    1
     3    32    34    1
     4    32    28    1
     5    28    29    2
     6    28    30    2
     7    28    27    1
     8    23    27    1
     9    23    24    1
    10    24    25    1
    11    25    26    1
    12    23     1    1
    13     1     2   am
    14     2     3    2
    15     2     4    1
    16     4     5    1
    17     4    35    1
    18    35    36    1
    19    36    37   ar
    20    37    38   ar
    21    38    42    1
    22    42    43   ar
    23    42    44   ar
    24    38    39   ar
    25    39    40   ar
    26    40    41   ar
    27     4     6    1
    28     6     7    1
    29     7     9    1
    30     9    10   ar
    31    10    11   ar
    32    11    12   ar
    33    12    13   ar
    34    13    14    1
    35    13    15   ar
    36     7     8    1
    37     8    16    1
    38    16    17   ar
    39    17    18   ar
    40    18    19   ar
    41    19    20    1
    42    19    21   ar
    43    21    22   ar
    44    26    24    1
    45     8     1    1
    46    22    16   ar
    47    41    36   ar
    48    15     9   ar
