@<TRIPOS>MOLECULE
*****
 22 26 0 0 0
SMALL
GASTEIGER

@<TRIPOS>ATOM
      1 O          66.8861   93.7103   11.9908 O.2     1  UNL1       -0.2744
      2 C          65.7219   92.7931   11.7601 C.2     1  UNL1        0.2293
      3 N          64.8982   92.7114   10.5091 N.am    1  UNL1       -0.2839
      4 C          63.8441   91.6643   10.7157 C.ar    1  UNL1        0.0467
      5 C          62.7498   91.1527    9.8266 C.ar    1  UNL1        0.0144
      6 C          61.8276   90.0758   10.3162 C.ar    1  UNL1        0.0013
      7 C          61.9998   89.5104   11.6948 C.ar    1  UNL1       -0.0002
      8 C          63.0942   90.0220   12.5840 C.ar    1  UNL1       -0.0026
      9 C          64.0163   91.0990   12.0944 C.ar    1  UNL1       -0.0008
     10 C          65.1768   91.7966   12.7398 C.3     1  UNL1        0.0927
     11 C          66.1573   92.0999   13.8338 C.3     1  UNL1        0.0179
     12 C          65.1032   91.0530   14.0404 C.3     1  UNL1        0.0315
     13 H          65.0269   93.2503    9.6954 H       1  UNL1        0.1549
     14 C          64.4522   90.0191   14.9106 C.2     1  UNL1       -0.0378
     15 C          63.6823   90.4399   16.1274 C.2     1  UNL1       -0.0080
     16 C          63.0313   89.4061   16.9976 C.2     1  UNL1        0.0022
     17 C          63.1500   87.9515   16.6512 C.2     1  UNL1        0.0365
     18 C          62.6199   86.7152   17.3147 C.2     1  UNL1        0.1233
     19 N          63.0620   85.5302   16.5082 N.2     1  UNL1       -0.1467
     20 N          63.8655   86.0343   15.3461 N.2     1  UNL1       -0.1520
     21 C          63.9199   87.5306   15.4345 C.2     1  UNL1        0.0861
     22 C          64.5709   88.5645   14.5642 C.3     1  UNL1        0.0697
@<TRIPOS>BOND
     1     1     2    2
     2     2     3   am
     3     3     4    1
     4     4     5   ar
     5     5     6   ar
     6     6     7   ar
     7     7     8   ar
     8     8     9   ar
     9     9    10    1
    10    10    11    1
    11    11    12    1
    12    12    14    1
    13    14    15    2
    14    15    16    1
    15    16    17    2
    16    17    18    1
    17    18    19    2
    18    19    20    1
    19    20    21    2
    20    21    22    1
    21    10     2    1
    22    22    14    1
    23     9     4   ar
    24    12    10    1
    25    21    17    1
    26     3    13    1
@<TRIPOS>MOLECULE
*****
 22 26 0 0 0
SMALL
GASTEIGER

@<TRIPOS>ATOM
      1 O          59.1600   88.6841    7.4161 O.2     1  UNL1       -0.2744
      2 C          60.1028   88.8156    8.5754 C.2     1  UNL1        0.2293
      3 N          60.4381   90.0858    9.2995 N.am    1  UNL1       -0.2839
      4 C          61.4183   89.7553   10.3857 C.ar    1  UNL1        0.0467
      5 C          62.0995   90.6064   11.4160 C.ar    1  UNL1        0.0144
      6 C          63.0512   89.9830   12.3935 C.ar    1  UNL1        0.0013
      7 C          63.3217   88.5086   12.3408 C.ar    1  UNL1       -0.0002
      8 C          62.6406   87.6575   11.3105 C.ar    1  UNL1       -0.0026
      9 C          61.6889   88.2808   10.3330 C.ar    1  UNL1       -0.0008
     10 C          60.8758   87.7001    9.2142 C.3     1  UNL1        0.0927
     11 C          60.3562   86.6158    8.3174 C.3     1  UNL1        0.0179
     12 C          61.3364   86.2852    9.4036 C.3     1  UNL1        0.0315
     13 H          60.0780   90.9795    9.0973 H       1  UNL1        0.1549
     14 C          62.1683   85.2774   10.1401 C.2     1  UNL1       -0.0378
     15 C          63.2590   84.5378    9.4235 C.2     1  UNL1       -0.0080
     16 C          64.0909   83.5300   10.1599 C.2     1  UNL1        0.0022
     17 C          63.8320   83.2618   11.6129 C.2     1  UNL1        0.0365
     18 C          64.4837   82.3327   12.5937 C.2     1  UNL1        0.1233
     19 N          63.7958   82.4979   13.9164 N.2     1  UNL1       -0.1467
     20 N          62.7189   83.5293   13.7530 N.2     1  UNL1       -0.1520
     21 C          62.7413   84.0014   12.3295 C.2     1  UNL1        0.0861
     22 C          61.9094   85.0092   11.5929 C.3     1  UNL1        0.0697
@<TRIPOS>BOND
     1     1     2    2
     2     2     3   am
     3     3     4    1
     4     4     5   ar
     5     5     6   ar
     6     6     7   ar
     7     7     8   ar
     8     8     9   ar
     9     9    10    1
    10    10    11    1
    11    11    12    1
    12    12    14    1
    13    14    15    2
    14    15    16    1
    15    16    17    2
    16    17    18    1
    17    18    19    2
    18    19    20    1
    19    20    21    2
    20    21    22    1
    21    10     2    1
    22    22    14    1
    23     9     4   ar
    24    12    10    1
    25    21    17    1
    26     3    13    1
@<TRIPOS>MOLECULE
*****
 22 26 0 0 0
SMALL
GASTEIGER

@<TRIPOS>ATOM
      1 O          64.1606   90.6412   16.2309 O.2     1  UNL1       -0.2744
      2 C          63.7824   90.6546   14.7794 C.2     1  UNL1        0.2293
      3 N          62.6096   89.9476   14.1673 N.am    1  UNL1       -0.2839
      4 C          62.6129   90.2334   12.6948 C.ar    1  UNL1        0.0467
      5 C          61.6980   89.8031   11.5868 C.ar    1  UNL1        0.0144
      6 C          61.9579   90.2566   10.1808 C.ar    1  UNL1        0.0013
      7 C          63.1327   91.1403    9.8828 C.ar    1  UNL1       -0.0002
      8 C          64.0477   91.5705   10.9908 C.ar    1  UNL1       -0.0026
      9 C          63.7878   91.1171   12.3968 C.ar    1  UNL1       -0.0008
     10 C          64.5105   91.3774   13.6852 C.3     1  UNL1        0.0927
     11 C          65.5778   91.9587   14.5644 C.3     1  UNL1        0.0179
     12 C          65.5811   92.2445   13.0920 C.3     1  UNL1        0.0315
     13 H          61.9530   89.3932   14.6477 H       1  UNL1        0.1549
     14 C          66.2012   92.9103   11.8993 C.2     1  UNL1       -0.0378
     15 C          67.1268   92.1382   11.0063 C.2     1  UNL1       -0.0080
     16 C          67.7469   92.8039    9.8137 C.2     1  UNL1        0.0022
     17 C          67.4413   94.2415    9.5140 C.2     1  UNL1        0.0365
     18 C          67.9001   95.1579    8.4186 C.2     1  UNL1        0.1233
     19 N          67.2580   96.4963    8.6345 N.2     1  UNL1       -0.1467
     20 N          66.4024   96.4070    9.8634 N.2     1  UNL1       -0.1520
     21 C          66.5157   95.0136   10.4069 C.2     1  UNL1        0.0861
     22 C          65.8957   94.3478   11.5996 C.3     1  UNL1        0.0697
@<TRIPOS>BOND
     1     1     2    2
     2     2     3   am
     3     3     4    1
     4     4     5   ar
     5     5     6   ar
     6     6     7   ar
     7     7     8   ar
     8     8     9   ar
     9     9    10    1
    10    10    11    1
    11    11    12    1
    12    12    14    1
    13    14    15    2
    14    15    16    1
    15    16    17    2
    16    17    18    1
    17    18    19    2
    18    19    20    1
    19    20    21    2
    20    21    22    1
    21    10     2    1
    22    22    14    1
    23     9     4   ar
    24    12    10    1
    25    21    17    1
    26     3    13    1
@<TRIPOS>MOLECULE
*****
 22 26 0 0 0
SMALL
GASTEIGER

@<TRIPOS>ATOM
      1 O          64.6194   89.5437   14.7065 O.2     1  UNL1       -0.2744
      2 C          63.9059   88.8508   13.5836 C.2     1  UNL1        0.2293
      3 N          63.2469   89.5180   12.4128 N.am    1  UNL1       -0.2839
      4 C          62.6599   88.4487   11.5399 C.ar    1  UNL1        0.0467
      5 C          61.8939   88.5127   10.2519 C.ar    1  UNL1        0.0144
      6 C          61.4242   87.2486    9.5951 C.ar    1  UNL1        0.0013
      7 C          61.7203   85.9206   10.2263 C.ar    1  UNL1       -0.0002
      8 C          62.4863   85.8565   11.5144 C.ar    1  UNL1       -0.0026
      9 C          62.9561   87.1206   12.1712 C.ar    1  UNL1       -0.0008
     10 C          63.7262   87.3691   13.4342 C.3     1  UNL1        0.0927
     11 C          64.4546   86.9953   14.6911 C.3     1  UNL1        0.0179
     12 C          63.8676   85.9261   13.8182 C.3     1  UNL1        0.0315
     13 H          63.2068   90.4875   12.2466 H       1  UNL1        0.1549
     14 C          63.6103   84.4754   13.5360 C.2     1  UNL1       -0.0378
     15 C          64.4937   83.7291   12.5805 C.2     1  UNL1       -0.0080
     16 C          64.2365   82.2785   12.2983 C.2     1  UNL1        0.0022
     17 C          63.0958   81.5743   12.9715 C.2     1  UNL1        0.0365
     18 C          62.6013   80.1605   12.8909 C.2     1  UNL1        0.1233
     19 N          61.4123   80.0330   13.7965 N.2     1  UNL1       -0.1467
     20 N          61.1721   81.3680   14.4367 N.2     1  UNL1       -0.1520
     21 C          62.2125   82.3206   13.9269 C.2     1  UNL1        0.0861
     22 C          62.4698   83.7712   14.2091 C.3     1  UNL1        0.0697
@<TRIPOS>BOND
     1     1     2    2
     2     2     3   am
     3     3     4    1
     4     4     5   ar
     5     5     6   ar
     6     6     7   ar
     7     7     8   ar
     8     8     9   ar
     9     9    10    1
    10    10    11    1
    11    11    12    1
    12    12    14    1
    13    14    15    2
    14    15    16    1
    15    16    17    2
    16    17    18    1
    17    18    19    2
    18    19    20    1
    19    20    21    2
    20    21    22    1
    21    10     2    1
    22    22    14    1
    23     9     4   ar
    24    12    10    1
    25    21    17    1
    26     3    13    1
@<TRIPOS>MOLECULE
*****
 22 26 0 0 0
SMALL
GASTEIGER

@<TRIPOS>ATOM
      1 O          64.5262   85.5803   15.9783 O.2     1  UNL1       -0.2744
      2 C          64.0699   84.4932   15.0509 C.2     1  UNL1        0.2293
      3 N          64.0566   83.0241   15.3535 N.am    1  UNL1       -0.2839
      4 C          63.5253   82.3072   14.1477 C.ar    1  UNL1        0.0467
      5 C          63.2877   80.8528   13.8685 C.ar    1  UNL1        0.0144
      6 C          62.7350   80.4244   12.5415 C.ar    1  UNL1        0.0013
      7 C          62.4200   81.4505   11.4937 C.ar    1  UNL1       -0.0002
      8 C          62.6576   82.9049   11.7729 C.ar    1  UNL1       -0.0026
      9 C          63.2102   83.3333   13.0999 C.ar    1  UNL1       -0.0008
     10 C          63.5468   84.6843   13.6581 C.3     1  UNL1        0.0927
     11 C          63.6751   86.1787   13.6462 C.3     1  UNL1        0.0179
     12 C          63.1438   85.4620   12.4405 C.3     1  UNL1        0.0315
     13 H          64.3457   82.6040   16.1956 H       1  UNL1        0.1549
     14 C          62.6044   85.4971   11.0412 C.2     1  UNL1       -0.0378
     15 C          63.3952   84.8958    9.9172 C.2     1  UNL1       -0.0080
     16 C          62.8558   84.9310    8.5180 C.2     1  UNL1        0.0022
     17 C          61.5257   85.5674    8.2428 C.2     1  UNL1        0.0365
     18 C          60.7435   85.7504    6.9760 C.2     1  UNL1        0.1233
     19 N          59.4693   86.4648    7.3170 N.2     1  UNL1       -0.1467
     20 N          59.4641   86.7233    8.7946 N.2     1  UNL1       -0.1520
     21 C          60.7349   86.1687    9.3667 C.2     1  UNL1        0.0861
     22 C          61.2744   86.1335   10.7659 C.3     1  UNL1        0.0697
@<TRIPOS>BOND
     1     1     2    2
     2     2     3   am
     3     3     4    1
     4     4     5   ar
     5     5     6   ar
     6     6     7   ar
     7     7     8   ar
     8     8     9   ar
     9     9    10    1
    10    10    11    1
    11    11    12    1
    12    12    14    1
    13    14    15    2
    14    15    16    1
    15    16    17    2
    16    17    18    1
    17    18    19    2
    18    19    20    1
    19    20    21    2
    20    21    22    1
    21    10     2    1
    22    22    14    1
    23     9     4   ar
    24    12    10    1
    25    21    17    1
    26     3    13    1
@<TRIPOS>MOLECULE
*****
 22 26 0 0 0
SMALL
GASTEIGER

@<TRIPOS>ATOM
      1 O          64.3425   82.9620   15.3253 O.2     1  UNL1       -0.2744
      2 C          64.2016   84.3752   14.8426 C.2     1  UNL1        0.2293
      3 N          64.6320   85.6068   15.5827 N.am    1  UNL1       -0.2839
      4 C          64.3019   86.7977   14.7326 C.ar    1  UNL1        0.0467
      5 C          64.4971   88.2693   14.9474 C.ar    1  UNL1        0.0144
      6 C          64.0578   89.2454   13.8965 C.ar    1  UNL1        0.0013
      7 C          63.4233   88.7498   12.6309 C.ar    1  UNL1       -0.0002
      8 C          63.2281   87.2782   12.4161 C.ar    1  UNL1       -0.0026
      9 C          63.6674   86.3021   13.4670 C.ar    1  UNL1       -0.0008
     10 C          63.6054   84.8050   13.5350 C.3     1  UNL1        0.0927
     11 C          63.2855   83.4232   13.0468 C.3     1  UNL1        0.0179
     12 C          62.9554   84.6140   12.1967 C.3     1  UNL1        0.0315
     13 H          65.0567   85.6295   16.4706 H       1  UNL1        0.1549
     14 C          62.3895   85.1913   10.9331 C.2     1  UNL1       -0.0378
     15 C          63.0329   84.8826    9.6136 C.2     1  UNL1       -0.0080
     16 C          62.4671   85.4598    8.3500 C.2     1  UNL1        0.0022
     17 C          61.2579   86.3458    8.4059 C.2     1  UNL1        0.0365
     18 C          60.4821   87.0538    7.3351 C.2     1  UNL1        0.1233
     19 N          59.3593   87.8002    7.9927 N.2     1  UNL1       -0.1467
     20 N          59.4413   87.5533    9.4700 N.2     1  UNL1       -0.1520
     21 C          60.6146   86.6545    9.7253 C.2     1  UNL1        0.0861
     22 C          61.1805   86.0772   10.9889 C.3     1  UNL1        0.0697
@<TRIPOS>BOND
     1     1     2    2
     2     2     3   am
     3     3     4    1
     4     4     5   ar
     5     5     6   ar
     6     6     7   ar
     7     7     8   ar
     8     8     9   ar
     9     9    10    1
    10    10    11    1
    11    11    12    1
    12    12    14    1
    13    14    15    2
    14    15    16    1
    15    16    17    2
    16    17    18    1
    17    18    19    2
    18    19    20    1
    19    20    21    2
    20    21    22    1
    21    10     2    1
    22    22    14    1
    23     9     4   ar
    24    12    10    1
    25    21    17    1
    26     3    13    1
@<TRIPOS>MOLECULE
*****
 22 26 0 0 0
SMALL
GASTEIGER

@<TRIPOS>ATOM
      1 O          60.8725   88.9271    9.1662 O.2     1  UNL1       -0.2744
      2 C          61.6314   88.3051   10.3007 C.2     1  UNL1        0.2293
      3 N          61.6896   86.8418   10.6252 N.am    1  UNL1       -0.2839
      4 C          62.5597   86.6695   11.8350 C.ar    1  UNL1        0.0467
      5 C          62.9772   85.4524   12.6059 C.ar    1  UNL1        0.0144
      6 C          63.8742   85.5922   13.7999 C.ar    1  UNL1        0.0013
      7 C          64.3537   86.9491   14.2230 C.ar    1  UNL1       -0.0002
      8 C          63.9362   88.1661   13.4521 C.ar    1  UNL1       -0.0026
      9 C          63.0392   88.0264   12.2581 C.ar    1  UNL1       -0.0008
     10 C          62.4655   89.0372   11.3098 C.3     1  UNL1        0.0927
     11 C          62.2223   90.4073   10.7498 C.3     1  UNL1        0.0179
     12 C          63.0923   90.2351   11.9595 C.3     1  UNL1        0.0315
     13 H          61.2364   86.1210   10.1310 H       1  UNL1        0.1549
     14 C          63.9565   90.8273   13.0331 C.2     1  UNL1       -0.0378
     15 C          63.5764   90.6671   14.4753 C.2     1  UNL1       -0.0080
     16 C          64.4405   91.2593   15.5489 C.2     1  UNL1        0.0022
     17 C          65.6848   92.0116   15.1802 C.2     1  UNL1        0.0365
     18 C          66.7250   92.7004   16.0130 C.2     1  UNL1        0.1233
     19 N          67.7480   93.2863   15.0855 N.2     1  UNL1       -0.1467
     20 N          67.3400   92.9595   13.6795 N.2     1  UNL1       -0.1520
     21 C          66.0649   92.1718   13.7381 C.2     1  UNL1        0.0861
     22 C          65.2007   91.5796   12.6645 C.3     1  UNL1        0.0697
@<TRIPOS>BOND
     1     1     2    2
     2     2     3   am
     3     3     4    1
     4     4     5   ar
     5     5     6   ar
     6     6     7   ar
     7     7     8   ar
     8     8     9   ar
     9     9    10    1
    10    10    11    1
    11    11    12    1
    12    12    14    1
    13    14    15    2
    14    15    16    1
    15    16    17    2
    16    17    18    1
    17    18    19    2
    18    19    20    1
    19    20    21    2
    20    21    22    1
    21    10     2    1
    22    22    14    1
    23     9     4   ar
    24    12    10    1
    25    21    17    1
    26     3    13    1
@<TRIPOS>MOLECULE
*****
 22 26 0 0 0
SMALL
GASTEIGER

@<TRIPOS>ATOM
      1 O          65.0296   93.1180   10.1971 O.2     1  UNL1       -0.2744
      2 C          65.5463   93.0150   11.6015 C.2     1  UNL1        0.2293
      3 N          66.6090   93.8774   12.2155 N.am    1  UNL1       -0.2839
      4 C          66.8105   93.4269   13.6320 C.ar    1  UNL1        0.0467
      5 C          67.7271   93.9082   14.7174 C.ar    1  UNL1        0.0144
      6 C          67.7055   93.2486   16.0644 C.ar    1  UNL1        0.0013
      7 C          66.7673   92.1077   16.3259 C.ar    1  UNL1       -0.0002
      8 C          65.8508   91.6265   15.2405 C.ar    1  UNL1       -0.0026
      9 C          65.8724   92.2861   13.8935 C.ar    1  UNL1       -0.0008
     10 C          65.0910   92.0315   12.6386 C.3     1  UNL1        0.0927
     11 C          64.0793   91.3447   11.7699 C.3     1  UNL1        0.0179
     12 C          64.2808   90.8942   13.1863 C.3     1  UNL1        0.0315
     13 H          67.0898   94.6104   11.7674 H       1  UNL1        0.1549
     14 C          63.9293   89.9775   14.3204 C.2     1  UNL1       -0.0378
     15 C          63.3339   90.5356   15.5791 C.2     1  UNL1       -0.0080
     16 C          62.9824   89.6189   16.7131 C.2     1  UNL1        0.0022
     17 C          63.2263   88.1441   16.5886 C.2     1  UNL1        0.0365
     18 C          62.9833   87.0035   17.5318 C.2     1  UNL1        0.1233
     19 N          63.4285   85.7403   16.8562 N.2     1  UNL1       -0.1467
     20 N          63.9466   86.1005   15.4954 N.2     1  UNL1       -0.1520
     21 C          63.8217   87.5860   15.3300 C.2     1  UNL1        0.0861
     22 C          64.1732   88.5028   14.1959 C.3     1  UNL1        0.0697
@<TRIPOS>BOND
     1     1     2    2
     2     2     3   am
     3     3     4    1
     4     4     5   ar
     5     5     6   ar
     6     6     7   ar
     7     7     8   ar
     8     8     9   ar
     9     9    10    1
    10    10    11    1
    11    11    12    1
    12    12    14    1
    13    14    15    2
    14    15    16    1
    15    16    17    2
    16    17    18    1
    17    18    19    2
    18    19    20    1
    19    20    21    2
    20    21    22    1
    21    10     2    1
    22    22    14    1
    23     9     4   ar
    24    12    10    1
    25    21    17    1
    26     3    13    1
@<TRIPOS>MOLECULE
*****
 22 26 0 0 0
SMALL
GASTEIGER

@<TRIPOS>ATOM
      1 O          63.7477   81.0259   14.1684 O.2     1  UNL1       -0.2744
      2 C          63.8459   82.5225   14.1927 C.2     1  UNL1        0.2293
      3 N          64.4530   83.3486   15.2876 N.am    1  UNL1       -0.2839
      4 C          64.3366   84.7925   14.8979 C.ar    1  UNL1        0.0467
      5 C          64.7611   86.0554   15.5869 C.ar    1  UNL1        0.0144
      6 C          64.5067   87.3845   14.9400 C.ar    1  UNL1        0.0013
      7 C          63.8276   87.4508   13.6041 C.ar    1  UNL1       -0.0002
      8 C          63.4030   86.1878   12.9152 C.ar    1  UNL1       -0.0026
      9 C          63.6575   84.8587   13.5621 C.ar    1  UNL1       -0.0008
     10 C          63.3543   83.4558   13.1262 C.3     1  UNL1        0.0927
     11 C          62.8269   82.3879   12.2143 C.3     1  UNL1        0.0179
     12 C          62.7105   83.8317   11.8246 C.3     1  UNL1        0.0315
     13 H          64.8569   83.0038   16.1166 H       1  UNL1        0.1549
     14 C          62.2715   84.8823   10.8480 C.2     1  UNL1       -0.0378
     15 C          62.8469   84.9060    9.4629 C.2     1  UNL1       -0.0080
     16 C          62.4080   85.9566    8.4864 C.2     1  UNL1        0.0022
     17 C          61.3937   86.9834    8.8949 C.2     1  UNL1        0.0365
     18 C          60.7736   88.1314    8.1550 C.2     1  UNL1        0.1233
     19 N          59.8150   88.8172    9.0828 N.2     1  UNL1       -0.1467
     20 N          59.8427   88.0930   10.3961 N.2     1  UNL1       -0.1520
     21 C          60.8184   86.9597   10.2800 C.2     1  UNL1        0.0861
     22 C          61.2573   85.9091   11.2565 C.3     1  UNL1        0.0697
@<TRIPOS>BOND
     1     1     2    2
     2     2     3   am
     3     3     4    1
     4     4     5   ar
     5     5     6   ar
     6     6     7   ar
     7     7     8   ar
     8     8     9   ar
     9     9    10    1
    10    10    11    1
    11    11    12    1
    12    12    14    1
    13    14    15    2
    14    15    16    1
    15    16    17    2
    16    17    18    1
    17    18    19    2
    18    19    20    1
    19    20    21    2
    20    21    22    1
    21    10     2    1
    22    22    14    1
    23     9     4   ar
    24    12    10    1
    25    21    17    1
    26     3    13    1
