@<TRIPOS>MOLECULE
*****
 43 47 0 0 0
SMALL
GASTEIGER

@<TRIPOS>ATOM
      1 C          64.6855   86.1381   14.4280 C.3     1  UNL1        0.1485
      2 O          65.8547   85.7576   15.2871 O.3     1  UNL1       -0.3810
      3 H          66.2438   86.5565   15.6759 H       1  UNL1        0.2105
      4 C          64.2956   87.5797   14.2875 C.3     1  UNL1        0.1255
      5 N          63.8694   88.3624   15.4941 N.am    1  UNL1       -0.2620
      6 C          63.6615   89.8443   15.3918 C.2     1  UNL1        0.2499
      7 O          63.2353   90.6269   16.5984 O.2     1  UNL1       -0.2699
      8 C          63.8798   90.5438   14.0829 C.ar    1  UNL1        0.0567
      9 C          63.0783   90.1481   12.8783 C.ar    1  UNL1        0.0063
     10 C          63.2967   90.8475   11.5694 C.ar    1  UNL1        0.0225
     11 C          64.3164   91.9426   11.4652 C.ar    1  UNL1        0.1202
     12 N          64.7486   92.8057   10.3169 N.ar    1  UNL1       -0.1946
     13 C          65.8172   93.7347   10.8119 C.ar    1  UNL1        0.2924
     14 O          66.0454   93.4458   12.2660 O.2     1  UNL1       -0.4237
     15 C          65.1179   92.3382   12.6698 C.ar    1  UNL1        0.1662
     16 C          64.8996   91.6388   13.9786 C.ar    1  UNL1        0.0437
     17 N          66.5320   94.7708    9.9960 N.pl3   1  UNL1       -0.2636
     18 C          67.0587   94.5873    8.6035 C.3     1  UNL1        0.0951
     19 C          67.6978   95.8754    8.1764 C.3     1  UNL1        0.0233
     20 C          67.5662   96.8548    9.3048 C.3     1  UNL1        0.0233
     21 C          66.8456   96.1720   10.4295 C.3     1  UNL1        0.0951
     22 C          63.6511   87.6629   16.8030 C.3     1  UNL1        0.1718
     23 C          61.9707   85.1804   16.9152 C.1     1  UNL1       -0.0124
     24 C          62.8109   86.4217   16.8591 C.1     1  UNL1       -0.0556
     25 C          63.9061   85.0769   13.7092 C.3     1  UNL1        0.1075
     26 N          62.6219   85.4281   13.0181 N.am    1  UNL1       -0.2695
     27 C          62.4723   85.1861   11.5453 C.2     1  UNL1        0.4020
     28 O          63.6069   84.5929   10.7637 O.2     1  UNL1       -0.2264
     29 H          61.8773   85.8174   13.5311 H       1  UNL1        0.1528
     30 O          61.1882   85.5372   10.8542 O.3     1  UNL1       -0.4291
     31 C          61.1578   86.6491    9.8478 C.3     1  UNL1        0.2447
     32 C          60.6393   88.0012   10.2394 C.ar    1  UNL1        0.0714
     33 C          60.6822   89.2403    9.3952 C.ar    1  UNL1        0.1053
     34 N          60.0563   90.3564   10.1779 N.ar    1  UNL1       -0.2350
     35 C          59.6266   89.8070   11.5059 C.ar    1  UNL1        0.1343
     36 S          59.9869   88.3514   11.5438 S.2     1  UNL1       -0.0652
     37 C          64.4109   83.6647   13.6816 C.3     1  UNL1        0.0485
     38 C          63.4415   82.5234   13.5941 C.ar    1  UNL1       -0.0204
     39 C          63.6753   81.4144   12.6116 C.ar    1  UNL1       -0.0042
     40 C          62.7059   80.2730   12.5242 C.ar    1  UNL1       -0.0003
     41 C          61.5027   80.2408   13.4193 C.ar    1  UNL1       -0.0000
     42 C          61.2689   81.3498   14.4018 C.ar    1  UNL1       -0.0003
     43 C          62.2382   82.4911   14.4893 C.ar    1  UNL1       -0.0042
@<TRIPOS>BOND
     1    23    24    3
     2    24    22    1
     3    22     5    1
     4     5     4    1
     5     4     1    1
     6     1     2    1
     7     1    25    1
     8    25    37    1
     9    37    38    1
    10    38    39   ar
    11    39    40   ar
    12    40    41   ar
    13    41    42   ar
    14    42    43   ar
    15    25    26    1
    16    26    27   am
    17    27    28    2
    18    27    30    1
    19    30    31    1
    20    31    32    1
    21    32    33   ar
    22    33    34   ar
    23    34    35   ar
    24    35    36   ar
    25     5     6   am
    26     6     7    2
    27     6     8    1
    28     8     9   ar
    29     9    10   ar
    30    10    11   ar
    31    11    12   ar
    32    12    13   ar
    33    13    17    1
    34    17    18    1
    35    18    19    1
    36    19    20    1
    37    20    21    1
    38    13    14   ar
    39    14    15   ar
    40    15    16   ar
    41    43    38   ar
    42    36    32   ar
    43    16     8   ar
    44    15    11   ar
    45    21    17    1
    46     2     3    1
    47    26    29    1
@<TRIPOS>MOLECULE
*****
 43 47 0 0 0
SMALL
GASTEIGER

@<TRIPOS>ATOM
      1 C          67.0487   92.0610   13.0350 C.3     1  UNL1        0.1485
      2 O          68.4101   91.9794   12.4106 O.3     1  UNL1       -0.3810
      3 H          68.9254   91.2839   12.8483 H       1  UNL1        0.2105
      4 C          66.6831   91.1388   14.1602 C.3     1  UNL1        0.1255
      5 N          65.7850   91.6188   15.2616 N.am    1  UNL1       -0.2620
      6 C          64.5265   90.8689   15.5836 C.2     1  UNL1        0.2499
      7 O          63.6284   91.3488   16.6850 O.2     1  UNL1       -0.2699
      8 C          64.1660   89.6390   14.8042 C.ar    1  UNL1        0.0567
      9 C          63.7721   89.7541   13.3614 C.ar    1  UNL1        0.0063
     10 C          63.4116   88.5242   12.5820 C.ar    1  UNL1        0.0225
     11 C          63.4450   87.1793   13.2454 C.ar    1  UNL1        0.1202
     12 N          63.1436   85.8010   12.7358 N.ar    1  UNL1       -0.1946
     13 C          63.3512   84.8342   13.8637 C.ar    1  UNL1        0.2924
     14 O          63.7809   85.6149   15.0703 O.2     1  UNL1       -0.4237
     15 C          63.8388   87.0642   14.6882 C.ar    1  UNL1        0.1662
     16 C          64.1993   88.2941   15.4676 C.ar    1  UNL1        0.0437
     17 N          63.1623   83.3476   13.7968 N.pl3   1  UNL1       -0.2636
     18 C          62.0319   82.5741   14.4081 C.3     1  UNL1        0.0951
     19 C          62.2417   81.1219   14.0959 C.3     1  UNL1        0.0233
     20 C          63.5017   80.9981   13.2916 C.3     1  UNL1        0.0233
     21 C          64.0707   82.3737   13.1067 C.3     1  UNL1        0.0951
     22 C          66.1455   92.8487   16.0411 C.3     1  UNL1        0.1718
     23 C          68.9668   93.8681   16.0143 C.1     1  UNL1       -0.0124
     24 C          67.5562   93.3584   16.0277 C.1     1  UNL1       -0.0556
     25 C          66.0528   93.0648   12.5343 C.3     1  UNL1        0.1075
     26 N          64.6445   92.6410   12.2389 N.am    1  UNL1       -0.2695
     27 C          64.3091   92.0257   10.9126 C.2     1  UNL1        0.4020
     28 O          65.3819   91.8343    9.8818 O.2     1  UNL1       -0.2264
     29 H          63.9404   92.7667   12.9154 H       1  UNL1        0.1528
     30 O          62.9009   91.6020   10.6171 O.3     1  UNL1       -0.4291
     31 C          62.6390   90.5142    9.6180 C.3     1  UNL1        0.2447
     32 C          61.6774   89.4105    9.9457 C.ar    1  UNL1        0.0714
     33 C          61.8461   87.9615    9.5965 C.ar    1  UNL1        0.1053
     34 N          60.6514   87.2175   10.1150 N.ar    1  UNL1       -0.2350
     35 C          59.7442   88.2068   10.7848 C.ar    1  UNL1        0.1343
     36 S          60.3783   89.5621   10.6801 S.2     1  UNL1       -0.0652
     37 C          66.4652   94.4923   12.3291 C.3     1  UNL1        0.0485
     38 C          66.5027   95.0706   10.9455 C.ar    1  UNL1       -0.0204
     39 C          67.3836   94.4552    9.8991 C.ar    1  UNL1       -0.0042
     40 C          67.4211   95.0335    8.5155 C.ar    1  UNL1       -0.0003
     41 C          66.5776   96.2272    8.1785 C.ar    1  UNL1       -0.0000
     42 C          65.6966   96.8426    9.2250 C.ar    1  UNL1       -0.0003
     43 C          65.6591   96.2643   10.6085 C.ar    1  UNL1       -0.0042
@<TRIPOS>BOND
     1    23    24    3
     2    24    22    1
     3    22     5    1
     4     5     4    1
     5     4     1    1
     6     1     2    1
     7     1    25    1
     8    25    37    1
     9    37    38    1
    10    38    39   ar
    11    39    40   ar
    12    40    41   ar
    13    41    42   ar
    14    42    43   ar
    15    25    26    1
    16    26    27   am
    17    27    28    2
    18    27    30    1
    19    30    31    1
    20    31    32    1
    21    32    33   ar
    22    33    34   ar
    23    34    35   ar
    24    35    36   ar
    25     5     6   am
    26     6     7    2
    27     6     8    1
    28     8     9   ar
    29     9    10   ar
    30    10    11   ar
    31    11    12   ar
    32    12    13   ar
    33    13    17    1
    34    17    18    1
    35    18    19    1
    36    19    20    1
    37    20    21    1
    38    13    14   ar
    39    14    15   ar
    40    15    16   ar
    41    43    38   ar
    42    36    32   ar
    43    16     8   ar
    44    15    11   ar
    45    21    17    1
    46     2     3    1
    47    26    29    1
@<TRIPOS>MOLECULE
*****
 43 47 0 0 0
SMALL
GASTEIGER

@<TRIPOS>ATOM
      1 C          62.5477   86.0870   10.3240 C.3     1  UNL1        0.1485
      2 O          62.5113   85.8896    8.8375 O.3     1  UNL1       -0.3810
      3 H          62.3384   86.7393    8.4027 H       1  UNL1        0.2105
      4 C          62.3315   87.4531   10.9048 C.3     1  UNL1        0.1255
      5 N          61.0648   88.2009   10.6113 N.am    1  UNL1       -0.2620
      6 C          61.0564   89.7006   10.6358 C.2     1  UNL1        0.2499
      7 O          59.7896   90.4485   10.3423 O.2     1  UNL1       -0.2699
      8 C          62.3147   90.4527   10.9538 C.ar    1  UNL1        0.0567
      9 C          62.9949   91.2608    9.8888 C.ar    1  UNL1        0.0063
     10 C          64.2532   92.0128   10.2069 C.ar    1  UNL1        0.0225
     11 C          64.8314   91.9566   11.5898 C.ar    1  UNL1        0.1202
     12 N          66.0500   92.5884   12.1947 N.ar    1  UNL1       -0.1946
     13 C          66.1229   92.1706   13.6335 C.ar    1  UNL1        0.2924
     14 O          64.9494   91.2806   13.9178 O.2     1  UNL1       -0.4237
     15 C          64.1512   91.1484   12.6548 C.ar    1  UNL1        0.1662
     16 C          62.8929   90.3964   12.3367 C.ar    1  UNL1        0.0437
     17 N          67.1833   92.5723   14.6156 N.pl3   1  UNL1       -0.2636
     18 C          67.5908   93.9772   14.9476 C.3     1  UNL1        0.0951
     19 C          68.6816   93.9127   15.9753 C.3     1  UNL1        0.0233
     20 C          68.9481   92.4680   16.2784 C.3     1  UNL1        0.0233
     21 C          68.0220   91.6396   15.4379 C.3     1  UNL1        0.0951
     22 C          59.8064   87.4489   10.2933 C.3     1  UNL1        0.1718
     23 C          59.0842   86.8721    7.4393 C.1     1  UNL1       -0.0124
     24 C          59.4453   87.1605    8.8663 C.1     1  UNL1       -0.0556
     25 C          62.8003   84.9184   11.2298 C.3     1  UNL1        0.1075
     26 N          62.2846   84.9360   12.6383 N.am    1  UNL1       -0.2695
     27 C          63.2433   84.8533   13.7891 C.2     1  UNL1        0.4020
     28 O          64.7176   84.7530   13.5313 O.2     1  UNL1       -0.2264
     29 H          61.3170   85.0018   12.8075 H       1  UNL1        0.1528
     30 O          62.7277   84.8709   15.1975 O.3     1  UNL1       -0.4291
     31 C          63.4794   85.6135   16.2622 C.3     1  UNL1        0.2447
     32 C          63.4645   87.1133   16.2832 C.ar    1  UNL1        0.0714
     33 C          64.0579   88.0156   15.2421 C.ar    1  UNL1        0.1053
     34 N          63.8138   89.4341   15.6644 N.ar    1  UNL1       -0.2350
     35 C          63.0696   89.4085   16.9666 C.ar    1  UNL1        0.1343
     36 S          62.8538   87.9742   17.3490 S.2     1  UNL1       -0.0652
     37 C          63.5685   83.7322   10.7272 C.3     1  UNL1        0.0485
     38 C          63.2059   82.3525   11.1908 C.ar    1  UNL1       -0.0204
     39 C          63.2982   81.1941   10.2423 C.ar    1  UNL1       -0.0042
     40 C          62.9355   79.8144   10.7060 C.ar    1  UNL1       -0.0003
     41 C          62.4805   79.5932   12.1181 C.ar    1  UNL1       -0.0000
     42 C          62.3882   80.7516   13.0665 C.ar    1  UNL1       -0.0003
     43 C          62.7508   82.1312   12.6029 C.ar    1  UNL1       -0.0042
@<TRIPOS>BOND
     1    23    24    3
     2    24    22    1
     3    22     5    1
     4     5     4    1
     5     4     1    1
     6     1     2    1
     7     1    25    1
     8    25    37    1
     9    37    38    1
    10    38    39   ar
    11    39    40   ar
    12    40    41   ar
    13    41    42   ar
    14    42    43   ar
    15    25    26    1
    16    26    27   am
    17    27    28    2
    18    27    30    1
    19    30    31    1
    20    31    32    1
    21    32    33   ar
    22    33    34   ar
    23    34    35   ar
    24    35    36   ar
    25     5     6   am
    26     6     7    2
    27     6     8    1
    28     8     9   ar
    29     9    10   ar
    30    10    11   ar
    31    11    12   ar
    32    12    13   ar
    33    13    17    1
    34    17    18    1
    35    18    19    1
    36    19    20    1
    37    20    21    1
    38    13    14   ar
    39    14    15   ar
    40    15    16   ar
    41    43    38   ar
    42    36    32   ar
    43    16     8   ar
    44    15    11   ar
    45    21    17    1
    46     2     3    1
    47    26    29    1
@<TRIPOS>MOLECULE
*****
 43 47 0 0 0
SMALL
GASTEIGER

@<TRIPOS>ATOM
      1 C          61.0455   89.6277   10.3359 C.3     1  UNL1        0.1485
      2 O          60.2435   90.7153   10.9869 O.3     1  UNL1       -0.3810
      3 H          60.7523   91.0983   11.7187 H       1  UNL1        0.2105
      4 C          62.4146   89.2949   10.8504 C.3     1  UNL1        0.1255
      5 N          63.2300   90.3443   11.5460 N.am    1  UNL1       -0.2620
      6 C          63.9717   90.0055   12.8050 C.2     1  UNL1        0.2499
      7 O          64.7871   91.0549   13.5006 O.2     1  UNL1       -0.2699
      8 C          63.8980   88.6172   13.3684 C.ar    1  UNL1        0.0567
      9 C          64.3589   88.3516   14.7709 C.ar    1  UNL1        0.0063
     10 C          64.2852   86.9634   15.3342 C.ar    1  UNL1        0.0225
     11 C          63.7506   85.8409   14.4952 C.ar    1  UNL1        0.1202
     12 N          63.5591   84.3801   14.7772 N.ar    1  UNL1       -0.1946
     13 C          62.9798   83.7429   13.5490 C.ar    1  UNL1        0.2924
     14 O          62.8133   84.8099   12.5080 O.2     1  UNL1       -0.4237
     15 C          63.2897   86.1065   13.0927 C.ar    1  UNL1        0.1662
     16 C          63.3634   87.4947   12.5293 C.ar    1  UNL1        0.0437
     17 N          62.6285   82.2933   13.3898 N.pl3   1  UNL1       -0.2636
     18 C          61.6685   81.5198   14.2443 C.3     1  UNL1        0.0951
     19 C          61.6224   80.1111   13.7307 C.3     1  UNL1        0.0233
     20 C          62.5538   80.0142   12.5590 C.3     1  UNL1        0.0233
     21 C          63.1757   81.3629   12.3483 C.3     1  UNL1        0.0951
     22 C          63.3037   91.7325   10.9825 C.3     1  UNL1        0.1718
     23 C          65.9722   92.9965   10.4524 C.1     1  UNL1       -0.0124
     24 C          64.6380   92.3645   10.7175 C.1     1  UNL1       -0.0556
     25 C          60.4783   88.8729    9.1703 C.3     1  UNL1        0.1075
     26 N          60.1980   89.5851    7.8803 N.am    1  UNL1       -0.2695
     27 C          59.0541   89.1466    7.0146 C.2     1  UNL1        0.4020
     28 O          58.1906   87.9958    7.4391 O.2     1  UNL1       -0.2264
     29 H          60.7647   90.3404    7.6017 H       1  UNL1        0.1528
     30 O          58.7738   89.8588    5.7246 O.3     1  UNL1       -0.4291
     31 C          59.0830   91.3206    5.5924 C.3     1  UNL1        0.2447
     32 C          59.9892   91.7994    4.4971 C.ar    1  UNL1        0.0714
     33 C          61.4190   91.3931    4.2950 C.ar    1  UNL1        0.1053
     34 N          61.9382   92.1111    3.0847 N.ar    1  UNL1       -0.2350
     35 C          60.8293   92.9612    2.5388 C.ar    1  UNL1        0.1343
     36 S          59.6248   92.7685    3.4117 S.2     1  UNL1       -0.0652
     37 C          60.1914   87.4059    9.2948 C.3     1  UNL1        0.0485
     38 C          61.0546   86.4095    8.5792 C.ar    1  UNL1       -0.0204
     39 C          62.4052   86.0564    9.1280 C.ar    1  UNL1       -0.0042
     40 C          63.2684   85.0600    8.4123 C.ar    1  UNL1       -0.0003
     41 C          62.7810   84.4168    7.1479 C.ar    1  UNL1       -0.0000
     42 C          61.4304   84.7700    6.5991 C.ar    1  UNL1       -0.0003
     43 C          60.5672   85.7663    7.3147 C.ar    1  UNL1       -0.0042
@<TRIPOS>BOND
     1    23    24    3
     2    24    22    1
     3    22     5    1
     4     5     4    1
     5     4     1    1
     6     1     2    1
     7     1    25    1
     8    25    37    1
     9    37    38    1
    10    38    39   ar
    11    39    40   ar
    12    40    41   ar
    13    41    42   ar
    14    42    43   ar
    15    25    26    1
    16    26    27   am
    17    27    28    2
    18    27    30    1
    19    30    31    1
    20    31    32    1
    21    32    33   ar
    22    33    34   ar
    23    34    35   ar
    24    35    36   ar
    25     5     6   am
    26     6     7    2
    27     6     8    1
    28     8     9   ar
    29     9    10   ar
    30    10    11   ar
    31    11    12   ar
    32    12    13   ar
    33    13    17    1
    34    17    18    1
    35    18    19    1
    36    19    20    1
    37    20    21    1
    38    13    14   ar
    39    14    15   ar
    40    15    16   ar
    41    43    38   ar
    42    36    32   ar
    43    16     8   ar
    44    15    11   ar
    45    21    17    1
    46     2     3    1
    47    26    29    1
@<TRIPOS>MOLECULE
*****
 43 47 0 0 0
SMALL
GASTEIGER

@<TRIPOS>ATOM
      1 C          62.3813   86.3174   11.5072 C.3     1  UNL1        0.1485
      2 O          61.3335   85.2913   11.1923 O.3     1  UNL1       -0.3810
      3 H          60.7383   85.6363   10.5085 H       1  UNL1        0.2105
      4 C          62.3807   87.6347   10.7897 C.3     1  UNL1        0.1255
      5 N          61.1050   88.4111   10.6483 N.am    1  UNL1       -0.2620
      6 C          61.1122   89.9019   10.8135 C.2     1  UNL1        0.2499
      7 O          59.8366   90.6783   10.6722 O.2     1  UNL1       -0.2699
      8 C          62.3950   90.6164   11.1201 C.ar    1  UNL1        0.0567
      9 C          63.1015   91.3848   10.0429 C.ar    1  UNL1        0.0063
     10 C          64.3842   92.0993   10.3495 C.ar    1  UNL1        0.0225
     11 C          64.9606   92.0453   11.7334 C.ar    1  UNL1        0.1202
     12 N          66.1998   92.6454   12.3286 N.ar    1  UNL1       -0.1946
     13 C          66.2591   92.2479   13.7738 C.ar    1  UNL1        0.2924
     14 O          65.0567   91.4020   14.0716 O.2     1  UNL1       -0.4237
     15 C          64.2541   91.2768   12.8105 C.ar    1  UNL1        0.1662
     16 C          62.9714   90.5624   12.5039 C.ar    1  UNL1        0.0437
     17 N          67.3325   92.6292   14.7498 N.pl3   1  UNL1       -0.2636
     18 C          68.1830   91.6796   15.5404 C.3     1  UNL1        0.0951
     19 C          69.1199   92.4906   16.3858 C.3     1  UNL1        0.0233
     20 C          68.8485   93.9412   16.1175 C.3     1  UNL1        0.0233
     21 C          67.7437   94.0268   15.1064 C.3     1  UNL1        0.0951
     22 C          59.8222   87.6966   10.3417 C.3     1  UNL1        0.1718
     23 C          59.2788   86.7171    7.5588 C.1     1  UNL1       -0.0124
     24 C          59.5505   87.2069    8.9502 C.1     1  UNL1       -0.0556
     25 C          63.4298   86.0262   12.5397 C.3     1  UNL1        0.1075
     26 N          63.9352   84.6256   12.7211 N.am    1  UNL1       -0.2695
     27 C          64.1481   83.7444   11.5261 C.2     1  UNL1        0.4020
     28 O          63.8557   84.2639   10.1496 O.2     1  UNL1       -0.2264
     29 H          64.1271   84.2847   13.6246 H       1  UNL1        0.1528
     30 O          64.6535   82.3439   11.7075 O.3     1  UNL1       -0.4291
     31 C          64.4661   81.6430   13.0204 C.3     1  UNL1        0.2447
     32 C          63.0912   81.2427   13.4673 C.ar    1  UNL1        0.0714
     33 C          62.1526   82.0778   14.2868 C.ar    1  UNL1        0.1053
     34 N          60.8949   81.2883   14.4992 N.ar    1  UNL1       -0.2350
     35 C          61.0564   79.9653   13.8109 C.ar    1  UNL1        0.1343
     36 S          62.4137   79.9372   13.1731 S.2     1  UNL1       -0.0652
     37 C          63.9728   87.1357   13.3907 C.3     1  UNL1        0.0485
     38 C          63.6234   87.2030   14.8478 C.ar    1  UNL1       -0.0204
     39 C          63.4227   85.9389   15.6301 C.ar    1  UNL1       -0.0042
     40 C          63.0733   86.0063   17.0874 C.ar    1  UNL1       -0.0003
     41 C          62.9246   87.3376   17.7622 C.ar    1  UNL1       -0.0000
     42 C          63.1253   88.6016   16.9799 C.ar    1  UNL1       -0.0003
     43 C          63.4747   88.5343   15.5228 C.ar    1  UNL1       -0.0042
@<TRIPOS>BOND
     1    23    24    3
     2    24    22    1
     3    22     5    1
     4     5     4    1
     5     4     1    1
     6     1     2    1
     7     1    25    1
     8    25    37    1
     9    37    38    1
    10    38    39   ar
    11    39    40   ar
    12    40    41   ar
    13    41    42   ar
    14    42    43   ar
    15    25    26    1
    16    26    27   am
    17    27    28    2
    18    27    30    1
    19    30    31    1
    20    31    32    1
    21    32    33   ar
    22    33    34   ar
    23    34    35   ar
    24    35    36   ar
    25     5     6   am
    26     6     7    2
    27     6     8    1
    28     8     9   ar
    29     9    10   ar
    30    10    11   ar
    31    11    12   ar
    32    12    13   ar
    33    13    17    1
    34    17    18    1
    35    18    19    1
    36    19    20    1
    37    20    21    1
    38    13    14   ar
    39    14    15   ar
    40    15    16   ar
    41    43    38   ar
    42    36    32   ar
    43    16     8   ar
    44    15    11   ar
    45    21    17    1
    46     2     3    1
    47    26    29    1
@<TRIPOS>MOLECULE
*****
 43 47 0 0 0
SMALL
GASTEIGER

@<TRIPOS>ATOM
      1 C          62.7058   86.7840   10.9953 C.3     1  UNL1        0.1485
      2 O          62.8515   86.9971   12.4728 O.3     1  UNL1       -0.3810
      3 H          62.7282   87.9372   12.6776 H       1  UNL1        0.2105
      4 C          62.4132   87.9475   10.0949 C.3     1  UNL1        0.1255
      5 N          61.1238   88.7006   10.2377 N.am    1  UNL1       -0.2620
      6 C          61.1348   90.1231   10.7133 C.2     1  UNL1        0.2499
      7 O          59.8454   90.8762   10.8561 O.2     1  UNL1       -0.2699
      8 C          62.4352   90.7926   11.0462 C.ar    1  UNL1        0.0567
      9 C          63.1979   91.5218    9.9801 C.ar    1  UNL1        0.0063
     10 C          64.4982   92.1912   10.3130 C.ar    1  UNL1        0.0225
     11 C          65.0359   92.1315   11.7121 C.ar    1  UNL1        0.1202
     12 N          66.2809   92.6917   12.3336 N.ar    1  UNL1       -0.1946
     13 C          66.2877   92.3086   13.7838 C.ar    1  UNL1        0.2924
     14 O          65.0469   91.5118   14.0586 O.2     1  UNL1       -0.4237
     15 C          64.2733   91.4023   12.7782 C.ar    1  UNL1        0.1662
     16 C          62.9729   90.7329   12.4453 C.ar    1  UNL1        0.0437
     17 N          67.3490   92.6607   14.7838 N.pl3   1  UNL1       -0.2636
     18 C          67.7947   94.0465   15.1454 C.3     1  UNL1        0.0951
     19 C          68.8720   93.9309   16.1829 C.3     1  UNL1        0.0233
     20 C          69.0919   92.4737   16.4624 C.3     1  UNL1        0.0233
     21 C          68.1506   91.6886   15.5976 C.3     1  UNL1        0.0951
     22 C          59.8234   88.0311    9.9048 C.3     1  UNL1        0.1718
     23 C          58.6907   88.2474    7.1353 C.1     1  UNL1       -0.0124
     24 C          59.2570   88.1393    8.5200 C.1     1  UNL1       -0.0556
     25 C          62.8527   85.4073   10.4180 C.3     1  UNL1        0.1075
     26 N          62.4045   84.2120   11.2056 N.am    1  UNL1       -0.2695
     27 C          63.3787   83.1179   11.5279 C.2     1  UNL1        0.4020
     28 O          64.8012   83.2192   11.0626 O.2     1  UNL1       -0.2264
     29 H          61.4709   84.1456   11.5111 H       1  UNL1        0.1528
     30 O          62.9306   81.9226   12.3156 O.3     1  UNL1       -0.4291
     31 C          63.0603   81.9175   13.8099 C.3     1  UNL1        0.2447
     32 C          63.1426   83.2139   14.5601 C.ar    1  UNL1        0.0714
     33 C          61.9849   83.9744   15.1359 C.ar    1  UNL1        0.1053
     34 N          62.5238   85.2079   15.7977 N.ar    1  UNL1       -0.2350
     35 C          64.0145   85.2098   15.6309 C.ar    1  UNL1        0.1343
     36 S          64.3969   83.9774   14.8660 S.2     1  UNL1       -0.0652
     37 C          63.4478   85.2260    9.0531 C.3     1  UNL1        0.0485
     38 C          62.5564   84.9702    7.8742 C.ar    1  UNL1       -0.0204
     39 C          61.0910   85.2786    7.9611 C.ar    1  UNL1       -0.0042
     40 C          60.1995   85.0228    6.7821 C.ar    1  UNL1       -0.0003
     41 C          60.7735   84.4586    5.5163 C.ar    1  UNL1       -0.0000
     42 C          62.2388   84.1503    5.4294 C.ar    1  UNL1       -0.0003
     43 C          63.1303   84.4060    6.6083 C.ar    1  UNL1       -0.0042
@<TRIPOS>BOND
     1    23    24    3
     2    24    22    1
     3    22     5    1
     4     5     4    1
     5     4     1    1
     6     1     2    1
     7     1    25    1
     8    25    37    1
     9    37    38    1
    10    38    39   ar
    11    39    40   ar
    12    40    41   ar
    13    41    42   ar
    14    42    43   ar
    15    25    26    1
    16    26    27   am
    17    27    28    2
    18    27    30    1
    19    30    31    1
    20    31    32    1
    21    32    33   ar
    22    33    34   ar
    23    34    35   ar
    24    35    36   ar
    25     5     6   am
    26     6     7    2
    27     6     8    1
    28     8     9   ar
    29     9    10   ar
    30    10    11   ar
    31    11    12   ar
    32    12    13   ar
    33    13    17    1
    34    17    18    1
    35    18    19    1
    36    19    20    1
    37    20    21    1
    38    13    14   ar
    39    14    15   ar
    40    15    16   ar
    41    43    38   ar
    42    36    32   ar
    43    16     8   ar
    44    15    11   ar
    45    21    17    1
    46     2     3    1
    47    26    29    1
@<TRIPOS>MOLECULE
*****
 43 47 0 0 0
SMALL
GASTEIGER

@<TRIPOS>ATOM
      1 C          64.2750   84.4242   13.2801 C.3     1  UNL1        0.1485
      2 O          65.5012   83.6635   13.6896 O.3     1  UNL1       -0.3810
      3 H          65.8169   83.9952   14.5448 H       1  UNL1        0.2105
      4 C          63.7348   85.5086   14.1645 C.3     1  UNL1        0.1255
      5 N          63.3174   85.1918   15.5700 N.am    1  UNL1       -0.2620
      6 C          63.1648   86.2958   16.5740 C.2     1  UNL1        0.2499
      7 O          62.7474   85.9789   17.9795 O.2     1  UNL1       -0.2699
      8 C          63.4294   87.7166   16.1724 C.ar    1  UNL1        0.0567
      9 C          63.0745   88.8377   17.1036 C.ar    1  UNL1        0.0063
     10 C          63.3392   90.2585   16.7021 C.ar    1  UNL1        0.0225
     11 C          63.9588   90.5582   15.3693 C.ar    1  UNL1        0.1202
     12 N          64.3347   91.8494   14.7048 N.ar    1  UNL1       -0.1946
     13 C          64.9219   91.5263   13.3629 C.ar    1  UNL1        0.2924
     14 O          64.9090   90.0354   13.1981 O.2     1  UNL1       -0.4237
     15 C          64.3137   89.4371   14.4381 C.ar    1  UNL1        0.1662
     16 C          64.0491   88.0163   14.8397 C.ar    1  UNL1        0.0437
     17 N          65.4325   92.5197   12.3616 N.pl3   1  UNL1       -0.2636
     18 C          65.3494   92.3896   10.8695 C.3     1  UNL1        0.0951
     19 C          65.9814   93.6071   10.2623 C.3     1  UNL1        0.0233
     20 C          66.4550   94.4894   11.3791 C.3     1  UNL1        0.0233
     21 C          66.1157   93.8172   12.6766 C.3     1  UNL1        0.0951
     22 C          63.0527   83.7709   15.9716 C.3     1  UNL1        0.1718
     23 C          61.2890   82.0363   14.2745 C.1     1  UNL1       -0.0124
     24 C          62.1709   82.9036   15.1230 C.1     1  UNL1       -0.0556
     25 C          63.5889   84.1005   11.9860 C.3     1  UNL1        0.1075
     26 N          62.3234   84.8124   11.6095 N.am    1  UNL1       -0.2695
     27 C          62.1375   85.3225   10.2112 C.2     1  UNL1        0.4020
     28 O          63.2170   85.1206    9.1894 O.2     1  UNL1       -0.2264
     29 H          61.6149   84.9449   12.2801 H       1  UNL1        0.1528
     30 O          60.8721   86.0344    9.8346 O.3     1  UNL1       -0.4291
     31 C          60.9358   87.3905    9.1966 C.3     1  UNL1        0.2447
     32 C          61.1369   88.6103   10.0462 C.ar    1  UNL1        0.0714
     33 C          62.4169   89.3773   10.1986 C.ar    1  UNL1        0.1053
     34 N          62.1645   90.5183   11.1391 N.ar    1  UNL1       -0.2350
     35 C          60.7284   90.4563   11.5679 C.ar    1  UNL1        0.1343
     36 S          60.0933   89.2772   10.8925 S.2     1  UNL1       -0.0652
     37 C          64.1683   83.0648   11.0686 C.3     1  UNL1        0.0485
     38 C          63.6124   81.6717   11.0640 C.ar    1  UNL1       -0.0204
     39 C          63.3837   80.9597    9.7636 C.ar    1  UNL1       -0.0042
     40 C          62.8278   79.5665    9.7591 C.ar    1  UNL1       -0.0003
     41 C          62.5005   78.8853   11.0548 C.ar    1  UNL1       -0.0000
     42 C          62.7292   79.5973   12.3551 C.ar    1  UNL1       -0.0003
     43 C          63.2851   80.9905   12.3597 C.ar    1  UNL1       -0.0042
@<TRIPOS>BOND
     1    23    24    3
     2    24    22    1
     3    22     5    1
     4     5     4    1
     5     4     1    1
     6     1     2    1
     7     1    25    1
     8    25    37    1
     9    37    38    1
    10    38    39   ar
    11    39    40   ar
    12    40    41   ar
    13    41    42   ar
    14    42    43   ar
    15    25    26    1
    16    26    27   am
    17    27    28    2
    18    27    30    1
    19    30    31    1
    20    31    32    1
    21    32    33   ar
    22    33    34   ar
    23    34    35   ar
    24    35    36   ar
    25     5     6   am
    26     6     7    2
    27     6     8    1
    28     8     9   ar
    29     9    10   ar
    30    10    11   ar
    31    11    12   ar
    32    12    13   ar
    33    13    17    1
    34    17    18    1
    35    18    19    1
    36    19    20    1
    37    20    21    1
    38    13    14   ar
    39    14    15   ar
    40    15    16   ar
    41    43    38   ar
    42    36    32   ar
    43    16     8   ar
    44    15    11   ar
    45    21    17    1
    46     2     3    1
    47    26    29    1
@<TRIPOS>MOLECULE
*****
 43 47 0 0 0
SMALL
GASTEIGER

@<TRIPOS>ATOM
      1 C          62.8683   87.4165   11.8651 C.3     1  UNL1        0.1485
      2 O          63.3815   88.2163   13.0256 O.3     1  UNL1       -0.3810
      3 H          63.3892   89.1576   12.7914 H       1  UNL1        0.2105
      4 C          62.4655   88.1088   10.5968 C.3     1  UNL1        0.1255
      5 N          61.2276   88.9553   10.5649 N.am    1  UNL1       -0.2620
      6 C          61.3160   90.4245   10.8536 C.2     1  UNL1        0.2499
      7 O          60.0781   91.2710   10.8218 O.2     1  UNL1       -0.2699
      8 C          62.6425   91.0474   11.1742 C.ar    1  UNL1        0.0567
      9 C          63.4500   91.6932   10.0876 C.ar    1  UNL1        0.0063
     10 C          64.7764   92.3160   10.4082 C.ar    1  UNL1        0.0225
     11 C          65.2952   92.2929   11.8154 C.ar    1  UNL1        0.1202
     12 N          66.5581   92.8219   12.4283 N.ar    1  UNL1       -0.1946
     13 C          66.5310   92.5029   13.8937 C.ar    1  UNL1        0.2924
     14 O          65.2514   91.7768   14.1865 O.2     1  UNL1       -0.4237
     15 C          64.4877   91.6471   12.9020 C.ar    1  UNL1        0.1662
     16 C          63.1614   91.0243   12.5814 C.ar    1  UNL1        0.0437
     17 N          67.5963   92.8492   14.8913 N.pl3   1  UNL1       -0.2636
     18 C          68.4286   91.8719   15.6674 C.3     1  UNL1        0.0951
     19 C          69.3631   92.6523   16.5437 C.3     1  UNL1        0.0233
     20 C          69.1083   94.1117   16.3091 C.3     1  UNL1        0.0233
     21 C          68.0164   94.2334   15.2878 C.3     1  UNL1        0.0951
     22 C          59.9011   88.3324   10.2443 C.3     1  UNL1        0.1718
     23 C          58.8980   88.3112    7.4172 C.1     1  UNL1       -0.0124
     24 C          59.3996   88.3218    8.8308 C.1     1  UNL1       -0.0556
     25 C          62.7578   85.9245   11.9728 C.3     1  UNL1        0.1075
     26 N          63.6580   85.1713   12.9070 N.am    1  UNL1       -0.2695
     27 C          63.1203   84.6442   14.2043 C.2     1  UNL1        0.4020
     28 O          61.6826   84.8703   14.5675 O.2     1  UNL1       -0.2264
     29 H          64.6016   85.0229   12.6686 H       1  UNL1        0.1528
     30 O          64.0204   83.8910   15.1385 O.3     1  UNL1       -0.4291
     31 C          64.4927   82.5139   14.7774 C.3     1  UNL1        0.2447
     32 C          63.8218   81.7574   13.6693 C.ar    1  UNL1        0.0714
     33 C          64.0301   81.9766   12.2000 C.ar    1  UNL1        0.1053
     34 N          63.1620   81.0037   11.4585 N.ar    1  UNL1       -0.2350
     35 C          62.4172   80.1832   12.4696 C.ar    1  UNL1        0.1343
     36 S          62.8250   80.6491   13.8358 S.2     1  UNL1       -0.0652
     37 C          61.7473   85.1856   11.1465 C.3     1  UNL1        0.0485
     38 C          61.9093   85.1070    9.6574 C.ar    1  UNL1       -0.0204
     39 C          60.7622   85.4619    8.7583 C.ar    1  UNL1       -0.0042
     40 C          60.9243   85.3832    7.2691 C.ar    1  UNL1       -0.0003
     41 C          62.2334   84.9498    6.6790 C.ar    1  UNL1       -0.0000
     42 C          63.3805   84.5949    7.5781 C.ar    1  UNL1       -0.0003
     43 C          63.2185   84.6735    9.0672 C.ar    1  UNL1       -0.0042
@<TRIPOS>BOND
     1    23    24    3
     2    24    22    1
     3    22     5    1
     4     5     4    1
     5     4     1    1
     6     1     2    1
     7     1    25    1
     8    25    37    1
     9    37    38    1
    10    38    39   ar
    11    39    40   ar
    12    40    41   ar
    13    41    42   ar
    14    42    43   ar
    15    25    26    1
    16    26    27   am
    17    27    28    2
    18    27    30    1
    19    30    31    1
    20    31    32    1
    21    32    33   ar
    22    33    34   ar
    23    34    35   ar
    24    35    36   ar
    25     5     6   am
    26     6     7    2
    27     6     8    1
    28     8     9   ar
    29     9    10   ar
    30    10    11   ar
    31    11    12   ar
    32    12    13   ar
    33    13    17    1
    34    17    18    1
    35    18    19    1
    36    19    20    1
    37    20    21    1
    38    13    14   ar
    39    14    15   ar
    40    15    16   ar
    41    43    38   ar
    42    36    32   ar
    43    16     8   ar
    44    15    11   ar
    45    21    17    1
    46     2     3    1
    47    26    29    1
@<TRIPOS>MOLECULE
*****
 43 47 0 0 0
SMALL
GASTEIGER

@<TRIPOS>ATOM
      1 C          62.6008   84.8175   11.5233 C.3     1  UNL1        0.1485
      2 O          63.4800   83.8396   10.8017 O.3     1  UNL1       -0.3810
      3 H          63.5554   83.0259   11.3242 H       1  UNL1        0.2105
      4 C          61.9992   84.4500   12.8473 C.3     1  UNL1        0.1255
      5 N          62.6761   83.4383   13.7238 N.am    1  UNL1       -0.2620
      6 C          63.4410   83.8864   14.9338 C.2     1  UNL1        0.2499
      7 O          64.1180   82.8747   15.8103 O.2     1  UNL1       -0.2699
      8 C          63.5290   85.3462   15.2674 C.ar    1  UNL1        0.0567
      9 C          62.7408   85.9019   16.4163 C.ar    1  UNL1        0.0063
     10 C          62.8288   87.3616   16.7498 C.ar    1  UNL1        0.0225
     11 C          63.7049   88.2658   15.9344 C.ar    1  UNL1        0.1202
     12 N          63.9908   89.7356   16.0249 N.ar    1  UNL1       -0.1946
     13 C          64.9556   90.0882   14.9319 C.ar    1  UNL1        0.2924
     14 O          65.2661   88.8365   14.1659 O.2     1  UNL1       -0.4237
     15 C          64.4931   87.7101   14.7855 C.ar    1  UNL1        0.1662
     16 C          64.4051   86.2504   14.4520 C.ar    1  UNL1        0.0437
     17 N          65.5123   91.4531   14.6537 N.pl3   1  UNL1       -0.2636
     18 C          66.0473   92.4122   15.6755 C.3     1  UNL1        0.0951
     19 C          66.4974   93.6503   14.9580 C.3     1  UNL1        0.0233
     20 C          66.2405   93.4563   13.4930 C.3     1  UNL1        0.0233
     21 C          65.6316   92.0983   13.3049 C.3     1  UNL1        0.0951
     22 C          62.5882   81.9784   13.3903 C.3     1  UNL1        0.1718
     23 C          60.1579   80.4043   14.1747 C.1     1  UNL1       -0.0124
     24 C          61.3730   81.1914   13.7825 C.1     1  UNL1       -0.0556
     25 C          62.3232   86.1629   10.9209 C.3     1  UNL1        0.1075
     26 N          61.5386   87.1825   11.6922 N.am    1  UNL1       -0.2695
     27 C          60.2062   87.6460   11.1826 C.2     1  UNL1        0.4020
     28 O          59.6583   87.0899    9.9016 O.2     1  UNL1       -0.2264
     29 H          61.8982   87.5475   12.5329 H       1  UNL1        0.1528
     30 O          59.4216   88.6656   11.9538 O.3     1  UNL1       -0.4291
     31 C          59.8635   90.0989   11.9672 C.3     1  UNL1        0.2447
     32 C          61.2515   90.4599   11.5276 C.ar    1  UNL1        0.0714
     33 C          62.4599   90.5539   12.4114 C.ar    1  UNL1        0.1053
     34 N          63.6300   90.9424   11.5570 N.ar    1  UNL1       -0.2350
     35 C          63.1448   91.0885   10.1452 C.ar    1  UNL1        0.1343
     36 S          61.6748   90.7904   10.1270 S.2     1  UNL1       -0.0652
     37 C          62.8302   86.4886    9.5473 C.3     1  UNL1        0.0485
     38 C          62.2814   85.7643    8.3540 C.ar    1  UNL1       -0.0204
     39 C          60.8287   85.8910    8.0024 C.ar    1  UNL1       -0.0042
     40 C          60.2799   85.1666    6.8090 C.ar    1  UNL1       -0.0003
     41 C          61.1837   84.3155    5.9673 C.ar    1  UNL1       -0.0000
     42 C          62.6364   84.1887    6.3189 C.ar    1  UNL1       -0.0003
     43 C          63.1853   84.9131    7.5122 C.ar    1  UNL1       -0.0042
@<TRIPOS>BOND
     1    23    24    3
     2    24    22    1
     3    22     5    1
     4     5     4    1
     5     4     1    1
     6     1     2    1
     7     1    25    1
     8    25    37    1
     9    37    38    1
    10    38    39   ar
    11    39    40   ar
    12    40    41   ar
    13    41    42   ar
    14    42    43   ar
    15    25    26    1
    16    26    27   am
    17    27    28    2
    18    27    30    1
    19    30    31    1
    20    31    32    1
    21    32    33   ar
    22    33    34   ar
    23    34    35   ar
    24    35    36   ar
    25     5     6   am
    26     6     7    2
    27     6     8    1
    28     8     9   ar
    29     9    10   ar
    30    10    11   ar
    31    11    12   ar
    32    12    13   ar
    33    13    17    1
    34    17    18    1
    35    18    19    1
    36    19    20    1
    37    20    21    1
    38    13    14   ar
    39    14    15   ar
    40    15    16   ar
    41    43    38   ar
    42    36    32   ar
    43    16     8   ar
    44    15    11   ar
    45    21    17    1
    46     2     3    1
    47    26    29    1
