@<TRIPOS>MOLECULE
*****
 39 43 0 0 0
SMALL
GASTEIGER

@<TRIPOS>ATOM
      1 N          61.7285   86.7397   10.0012 N.ar    1  UNL1       -0.2251
      2 N          60.7568   86.7131    8.8588 N.ar    1  UNL1       -0.1610
      3 C          60.3110   88.1211    8.5968 C.ar    1  UNL1        0.1741
      4 C          61.0071   89.0179    9.5773 C.ar    1  UNL1        0.0488
      5 C          61.8832   88.1641   10.4452 C.ar    1  UNL1        0.1391
      6 C          62.9495   84.0441   12.6457 C.ar    1  UNL1       -0.0011
      7 C          63.8134   83.1722   11.7835 C.ar    1  UNL1       -0.0025
      8 C          63.9824   83.4894   10.3272 C.ar    1  UNL1        0.0013
      9 C          63.2874   84.6785    9.7331 C.ar    1  UNL1        0.0191
     10 C          62.4235   85.5505   10.5953 C.ar    1  UNL1        0.0827
     11 C          62.2546   85.2332   12.0516 C.ar    1  UNL1        0.0165
     12 C          62.7806   83.7269   14.1020 C.3     1  UNL1        0.1164
     13 C          63.4901   85.6431   15.7066 C.2     1  UNL1        0.2367
     14 O          64.9307   85.3854   15.3774 O.2     1  UNL1       -0.2737
     15 N          62.4151   84.8139   15.0689 N.am    1  UNL1       -0.2993
     16 H          61.4696   84.9831   15.2849 H       1  UNL1        0.1498
     17 C          62.6760   86.3798   18.0612 C.3     1  UNL1        0.0267
     18 C          63.1246   86.7301   16.6734 C.3     1  UNL1        0.1284
     19 N          63.2077   88.1675   16.2525 N.3     1  UNL1       -0.3150
     20 H          63.5279   88.2206   15.2855 H       1  UNL1        0.1192
     21 H          63.8654   88.6611   16.8560 H       1  UNL1        0.1192
     22 C          62.7601   88.6494   11.5613 C.ar    1  UNL1        0.2676
     23 N          63.1674   87.8596   12.7697 N.ar    1  UNL1       -0.1053
     24 N          64.0426   88.7318   13.6201 N.ar    1  UNL1       -0.1068
     25 C          64.1762   90.0606   12.9374 C.ar    1  UNL1        0.2505
     26 O          63.3836   90.0097   11.6649 O.2     1  UNL1       -0.4143
     27 C          64.9641   91.2343   13.4389 C.ar    1  UNL1        0.0626
     28 C          65.2826   91.3548   14.8998 C.ar    1  UNL1        0.0053
     29 C          66.0705   92.5286   15.4013 C.ar    1  UNL1        0.0017
     30 C          66.5400   93.5818   14.4420 C.ar    1  UNL1        0.0196
     31 C          66.2215   93.4612   12.9811 C.ar    1  UNL1        0.0881
     32 N          66.5479   94.3361   11.8072 N.ar    1  UNL1       -0.2363
     33 C          65.9618   93.7031   10.5801 C.ar    1  UNL1        0.1345
     34 S          65.2731   92.4370   10.9958 S.2     1  UNL1       -0.0644
     35 C          65.4336   92.2876   12.4796 C.ar    1  UNL1        0.0531
     36 C          59.3395   88.5560    7.5399 C.3     1  UNL1        0.4366
     37 F          58.3680   88.9910    6.4829 F       1  UNL1       -0.1643
     38 F          60.0903   89.8448    7.3801 F       1  UNL1       -0.1643
     39 F          58.5887   87.2674    7.6996 F       1  UNL1       -0.1643
@<TRIPOS>BOND
     1    18    17    1
     2    18    19    1
     3    18    13    1
     4    13    14    2
     5    13    15   am
     6    15    12    1
     7    12     6    1
     8     6     7   ar
     9     7     8   ar
    10     8     9   ar
    11     9    10   ar
    12    10     1    1
    13     1     2   ar
    14     2     3   ar
    15     3    36    1
    16    36    37    1
    17    36    38    1
    18    36    39    1
    19     3     4   ar
    20     4     5   ar
    21     5    22    1
    22    22    23   ar
    23    23    24   ar
    24    24    25   ar
    25    25    27    1
    26    27    28   ar
    27    28    29   ar
    28    29    30   ar
    29    30    31   ar
    30    31    32   ar
    31    32    33   ar
    32    33    34   ar
    33    34    35   ar
    34    25    26   ar
    35    10    11   ar
    36    11     6   ar
    37     5     1   ar
    38    26    22   ar
    39    35    27   ar
    40    35    31   ar
    41    19    20    1
    42    19    21    1
    43    15    16    1
@<TRIPOS>MOLECULE
*****
 39 43 0 0 0
SMALL
GASTEIGER

@<TRIPOS>ATOM
      1 N          64.3736   89.8401   14.6325 N.ar    1  UNL1       -0.2251
      2 N          65.3059   90.9061   15.1269 N.ar    1  UNL1       -0.1610
      3 C          65.3782   91.9797   14.0818 C.ar    1  UNL1        0.1741
      4 C          64.4907   91.5772   12.9415 C.ar    1  UNL1        0.0488
      5 C          63.8698   90.2548   13.2819 C.ar    1  UNL1        0.1391
      6 C          64.0956   85.9914   15.5603 C.ar    1  UNL1       -0.0011
      7 C          63.2804   86.0611   16.8175 C.ar    1  UNL1       -0.0025
      8 C          62.8297   87.3904   17.3464 C.ar    1  UNL1        0.0013
      9 C          63.1940   88.6500   16.6181 C.ar    1  UNL1        0.0191
     10 C          64.0092   88.5804   15.3609 C.ar    1  UNL1        0.0827
     11 C          64.4600   87.2511   14.8320 C.ar    1  UNL1        0.0165
     12 C          64.5464   84.6622   15.0314 C.3     1  UNL1        0.1164
     13 C          63.4641   82.7079   13.7048 C.2     1  UNL1        0.2367
     14 O          64.3117   83.0465   12.5145 O.2     1  UNL1       -0.2737
     15 N          63.5815   83.5157   14.9633 N.am    1  UNL1       -0.2993
     16 H          63.0252   83.2934   15.7446 H       1  UNL1        0.1498
     17 C          62.6872   80.4828   12.6115 C.3     1  UNL1        0.0267
     18 C          62.4992   81.5615   13.6367 C.3     1  UNL1        0.1284
     19 N          61.3462   81.4937   14.5939 N.3     1  UNL1       -0.3150
     20 H          61.3725   82.3019   15.2156 H       1  UNL1        0.1192
     21 H          61.4121   80.6382   15.1455 H       1  UNL1        0.1192
     22 C          62.9130   89.4827   12.4225 C.ar    1  UNL1        0.2676
     23 N          61.4164   89.5219   12.5146 N.ar    1  UNL1       -0.1053
     24 N          60.8634   88.5994   11.4692 N.ar    1  UNL1       -0.1068
     25 C          62.0181   87.9899   10.7310 C.ar    1  UNL1        0.2505
     26 O          63.2849   88.5359   11.3201 O.2     1  UNL1       -0.4143
     27 C          61.9229   87.0071    9.6018 C.ar    1  UNL1        0.0626
     28 C          63.0653   86.0773    9.3185 C.ar    1  UNL1        0.0053
     29 C          62.9701   85.0944    8.1893 C.ar    1  UNL1        0.0017
     30 C          61.7325   85.0414    7.3435 C.ar    1  UNL1        0.0196
     31 C          60.5900   85.9713    7.6269 C.ar    1  UNL1        0.0881
     32 N          59.2537   86.1491    6.9692 N.ar    1  UNL1       -0.2363
     33 C          58.5230   87.2417    7.6917 C.ar    1  UNL1        0.1345
     34 S          59.4078   87.7393    8.7962 S.2     1  UNL1       -0.0644
     35 C          60.6853   86.9541    8.7560 C.ar    1  UNL1        0.0531
     36 C          66.1948   93.2353   14.1629 C.3     1  UNL1        0.4366
     37 F          67.0114   94.4910   14.2438 F       1  UNL1       -0.1643
     38 F          65.8482   93.5526   12.7384 F       1  UNL1       -0.1643
     39 F          66.5414   92.9181   15.5873 F       1  UNL1       -0.1643
@<TRIPOS>BOND
     1    18    17    1
     2    18    19    1
     3    18    13    1
     4    13    14    2
     5    13    15   am
     6    15    12    1
     7    12     6    1
     8     6     7   ar
     9     7     8   ar
    10     8     9   ar
    11     9    10   ar
    12    10     1    1
    13     1     2   ar
    14     2     3   ar
    15     3    36    1
    16    36    37    1
    17    36    38    1
    18    36    39    1
    19     3     4   ar
    20     4     5   ar
    21     5    22    1
    22    22    23   ar
    23    23    24   ar
    24    24    25   ar
    25    25    27    1
    26    27    28   ar
    27    28    29   ar
    28    29    30   ar
    29    30    31   ar
    30    31    32   ar
    31    32    33   ar
    32    33    34   ar
    33    34    35   ar
    34    25    26   ar
    35    10    11   ar
    36    11     6   ar
    37     5     1   ar
    38    26    22   ar
    39    35    27   ar
    40    35    31   ar
    41    19    20    1
    42    19    21    1
    43    15    16    1
@<TRIPOS>MOLECULE
*****
 39 43 0 0 0
SMALL
GASTEIGER

@<TRIPOS>ATOM
      1 N          64.3035   89.9713   14.2203 N.ar    1  UNL1       -0.2251
      2 N          65.3982   90.9641   14.4772 N.ar    1  UNL1       -0.1610
      3 C          65.3787   91.9730   13.3674 C.ar    1  UNL1        0.1741
      4 C          64.2719   91.6038   12.4246 C.ar    1  UNL1        0.0488
      5 C          63.6074   90.3667   12.9517 C.ar    1  UNL1        0.1391
      6 C          64.0857   86.2374   15.5472 C.ar    1  UNL1       -0.0011
      7 C          63.2863   86.4286   16.8020 C.ar    1  UNL1       -0.0025
      8 C          62.8260   87.8007   17.1962 C.ar    1  UNL1        0.0013
      9 C          63.1650   88.9816   16.3357 C.ar    1  UNL1        0.0191
     10 C          63.9644   88.7904   15.0809 C.ar    1  UNL1        0.0827
     11 C          64.4247   87.4183   14.6867 C.ar    1  UNL1        0.0165
     12 C          64.5460   84.8653   15.1529 C.3     1  UNL1        0.1164
     13 C          64.0580   82.9924   13.4197 C.2     1  UNL1        0.2367
     14 O          63.8136   82.0220   14.5370 O.2     1  UNL1       -0.2737
     15 N          64.4242   84.4141   13.7276 N.am    1  UNL1       -0.2993
     16 H          64.5846   85.0510   12.9942 H       1  UNL1        0.1498
     17 C          62.7948   81.6599   11.5816 C.3     1  UNL1        0.0267
     18 C          63.9363   82.5412   11.9943 C.3     1  UNL1        0.1284
     19 N          64.9560   82.9712   10.9817 N.3     1  UNL1       -0.3150
     20 H          65.6548   83.5619   11.4326 H       1  UNL1        0.1192
     21 H          64.4961   83.4960   10.2378 H       1  UNL1        0.1192
     22 C          62.4500   89.6506   12.3211 C.ar    1  UNL1        0.2676
     23 N          61.0844   89.4845   12.9189 N.ar    1  UNL1       -0.1053
     24 N          60.2455   88.7062   11.9492 N.ar    1  UNL1       -0.1068
     25 C          61.0926   88.3913   10.7521 C.ar    1  UNL1        0.2505
     26 O          62.4551   88.9749   10.9819 O.2     1  UNL1       -0.4143
     27 C          60.6542   87.6268    9.5382 C.ar    1  UNL1        0.0626
     28 C          59.3516   87.9590    8.8726 C.ar    1  UNL1        0.0053
     29 C          58.9132   87.1946    7.6587 C.ar    1  UNL1        0.0017
     30 C          59.7774   86.0980    7.1104 C.ar    1  UNL1        0.0196
     31 C          61.0800   85.7659    7.7760 C.ar    1  UNL1        0.0881
     32 N          62.1344   84.7452    7.4653 N.ar    1  UNL1       -0.2363
     33 C          63.2243   84.8787    8.4871 C.ar    1  UNL1        0.1345
     34 S          62.8436   85.9820    9.4294 S.2     1  UNL1       -0.0644
     35 C          61.5184   86.5303    8.9898 C.ar    1  UNL1        0.0531
     36 C          66.3036   93.1454   13.2254 C.3     1  UNL1        0.4366
     37 F          67.2285   94.3177   13.0833 F       1  UNL1       -0.1643
     38 F          66.4762   92.8326   11.7686 F       1  UNL1       -0.1643
     39 F          66.1310   93.4581   14.6822 F       1  UNL1       -0.1643
@<TRIPOS>BOND
     1    18    17    1
     2    18    19    1
     3    18    13    1
     4    13    14    2
     5    13    15   am
     6    15    12    1
     7    12     6    1
     8     6     7   ar
     9     7     8   ar
    10     8     9   ar
    11     9    10   ar
    12    10     1    1
    13     1     2   ar
    14     2     3   ar
    15     3    36    1
    16    36    37    1
    17    36    38    1
    18    36    39    1
    19     3     4   ar
    20     4     5   ar
    21     5    22    1
    22    22    23   ar
    23    23    24   ar
    24    24    25   ar
    25    25    27    1
    26    27    28   ar
    27    28    29   ar
    28    29    30   ar
    29    30    31   ar
    30    31    32   ar
    31    32    33   ar
    32    33    34   ar
    33    34    35   ar
    34    25    26   ar
    35    10    11   ar
    36    11     6   ar
    37     5     1   ar
    38    26    22   ar
    39    35    27   ar
    40    35    31   ar
    41    19    20    1
    42    19    21    1
    43    15    16    1
@<TRIPOS>MOLECULE
*****
 39 43 0 0 0
SMALL
GASTEIGER

@<TRIPOS>ATOM
      1 N          61.5776   88.5684    9.7051 N.ar    1  UNL1       -0.2251
      2 N          60.6934   89.5203    8.9552 N.ar    1  UNL1       -0.1610
      3 C          60.0373   88.7622    7.8395 C.ar    1  UNL1        0.1741
      4 C          60.5159   87.3419    7.8998 C.ar    1  UNL1        0.0488
      5 C          61.4679   87.2221    9.0528 C.ar    1  UNL1        0.1391
      6 C          63.8365   90.6196   12.2428 C.ar    1  UNL1       -0.0011
      7 C          64.1138   89.5755   13.2833 C.ar    1  UNL1       -0.0025
      8 C          63.5457   88.1956   13.1311 C.ar    1  UNL1        0.0013
      9 C          62.7003   87.8599   11.9384 C.ar    1  UNL1        0.0191
     10 C          62.4230   88.9041   10.8979 C.ar    1  UNL1        0.0827
     11 C          62.9911   90.2839   11.0500 C.ar    1  UNL1        0.0165
     12 C          64.4047   91.9995   12.3949 C.3     1  UNL1        0.1164
     13 C          66.2573   92.4148   14.1684 C.2     1  UNL1        0.2367
     14 O          65.2145   92.4684   15.2453 O.2     1  UNL1       -0.2737
     15 N          65.8524   92.1803   12.7433 N.am    1  UNL1       -0.2993
     16 H          66.5369   92.1451   12.0365 H       1  UNL1        0.1498
     17 C          68.0919   93.4087   15.7164 C.3     1  UNL1        0.0267
     18 C          67.7051   92.5956   14.5167 C.3     1  UNL1        0.1284
     19 N          68.7660   91.9633   13.6653 N.3     1  UNL1       -0.3150
     20 H          68.3274   91.4521   12.8994 H       1  UNL1        0.1192
     21 H          69.3177   91.3192   14.2321 H       1  UNL1        0.1192
     22 C          62.1844   85.9751    9.4788 C.ar    1  UNL1        0.2676
     23 N          63.2897   85.2932    8.7282 N.ar    1  UNL1       -0.1053
     24 N          63.7097   84.0877    9.5156 N.ar    1  UNL1       -0.1068
     25 C          62.8641   84.0244   10.7528 C.ar    1  UNL1        0.2505
     26 O          61.9213   85.1908   10.7301 O.2     1  UNL1       -0.4143
     27 C          62.9467   82.9783   11.8247 C.ar    1  UNL1        0.0626
     28 C          62.6414   81.5460   11.4999 C.ar    1  UNL1        0.0053
     29 C          62.7240   80.4999   12.5718 C.ar    1  UNL1        0.0017
     30 C          63.1118   80.8861   13.9684 C.ar    1  UNL1        0.0196
     31 C          63.4171   82.3184   14.2931 C.ar    1  UNL1        0.0881
     32 N          63.8231   82.9936   15.5694 N.ar    1  UNL1       -0.2363
     33 C          63.9915   84.4570   15.2865 C.ar    1  UNL1        0.1345
     34 S          63.6895   84.6862   13.8351 S.2     1  UNL1       -0.0644
     35 C          63.3345   83.3644   13.2213 C.ar    1  UNL1        0.0531
     36 C          59.0720   89.3257    6.8391 C.3     1  UNL1        0.4366
     37 F          58.1066   89.8891    5.8388 F       1  UNL1       -0.1643
     38 F          57.9836   88.4607    7.4023 F       1  UNL1       -0.1643
     39 F          60.1603   90.1906    6.2760 F       1  UNL1       -0.1643
@<TRIPOS>BOND
     1    18    17    1
     2    18    19    1
     3    18    13    1
     4    13    14    2
     5    13    15   am
     6    15    12    1
     7    12     6    1
     8     6     7   ar
     9     7     8   ar
    10     8     9   ar
    11     9    10   ar
    12    10     1    1
    13     1     2   ar
    14     2     3   ar
    15     3    36    1
    16    36    37    1
    17    36    38    1
    18    36    39    1
    19     3     4   ar
    20     4     5   ar
    21     5    22    1
    22    22    23   ar
    23    23    24   ar
    24    24    25   ar
    25    25    27    1
    26    27    28   ar
    27    28    29   ar
    28    29    30   ar
    29    30    31   ar
    30    31    32   ar
    31    32    33   ar
    32    33    34   ar
    33    34    35   ar
    34    25    26   ar
    35    10    11   ar
    36    11     6   ar
    37     5     1   ar
    38    26    22   ar
    39    35    27   ar
    40    35    31   ar
    41    19    20    1
    42    19    21    1
    43    15    16    1
@<TRIPOS>MOLECULE
*****
 39 43 0 0 0
SMALL
GASTEIGER

@<TRIPOS>ATOM
      1 N          61.5467   88.6091    9.6633 N.ar    1  UNL1       -0.2251
      2 N          60.6527   89.5455    8.9058 N.ar    1  UNL1       -0.1610
      3 C          59.9839   88.7654    7.8131 C.ar    1  UNL1        0.1741
      4 C          60.4645   87.3469    7.8953 C.ar    1  UNL1        0.0488
      5 C          61.4304   87.2503    9.0388 C.ar    1  UNL1        0.1391
      6 C          63.9017   90.6842   12.0919 C.ar    1  UNL1       -0.0011
      7 C          64.1251   89.6875   13.1903 C.ar    1  UNL1       -0.0025
      8 C          63.4890   88.3312   13.1131 C.ar    1  UNL1        0.0013
      9 C          62.6296   87.9717   11.9375 C.ar    1  UNL1        0.0191
     10 C          62.4062   88.9685   10.8390 C.ar    1  UNL1        0.0827
     11 C          63.0422   90.3248   10.9163 C.ar    1  UNL1        0.0165
     12 C          64.5378   92.0405   12.1692 C.3     1  UNL1        0.1164
     13 C          66.6581   92.8243   10.8886 C.2     1  UNL1        0.2367
     14 O          67.5132   92.4037   12.0469 O.2     1  UNL1       -0.2737
     15 N          65.1704   92.6428   10.9497 N.am    1  UNL1       -0.2993
     16 H          64.6092   92.9189   10.1894 H       1  UNL1        0.1498
     17 C          68.5344   92.8187    9.0916 C.3     1  UNL1        0.0267
     18 C          67.2907   93.4266    9.6691 C.3     1  UNL1        0.1284
     19 N          66.6796   94.6368    9.0272 N.3     1  UNL1       -0.3150
     20 H          65.8465   94.9132    9.5469 H       1  UNL1        0.1192
     21 H          66.4228   94.4180    8.0646 H       1  UNL1        0.1192
     22 C          62.1531   86.0122    9.4803 C.ar    1  UNL1        0.2676
     23 N          63.2672   85.3311    8.7422 N.ar    1  UNL1       -0.1053
     24 N          63.6913   84.1359    9.5431 N.ar    1  UNL1       -0.1068
     25 C          62.8393   84.0783   10.7763 C.ar    1  UNL1        0.2505
     26 O          61.8887   85.2379   10.7375 O.2     1  UNL1       -0.4143
     27 C          62.9232   83.0428   11.8583 C.ar    1  UNL1        0.0626
     28 C          62.6360   81.6045   11.5440 C.ar    1  UNL1        0.0053
     29 C          62.7198   80.5691   12.6260 C.ar    1  UNL1        0.0017
     30 C          63.0910   80.9719   14.0224 C.ar    1  UNL1        0.0196
     31 C          63.3783   82.4103   14.3367 C.ar    1  UNL1        0.0881
     32 N          63.7657   83.1013   15.6104 N.ar    1  UNL1       -0.2363
     33 C          63.9213   84.5637   15.3157 C.ar    1  UNL1        0.1345
     34 S          63.6300   84.7766   13.8597 S.2     1  UNL1       -0.0644
     35 C          63.2944   83.4456   13.2547 C.ar    1  UNL1        0.0531
     36 C          59.0061   89.3085    6.8136 C.3     1  UNL1        0.4366
     37 F          58.0283   89.8517    5.8141 F       1  UNL1       -0.1643
     38 F          60.0791   90.1864    6.2410 F       1  UNL1       -0.1643
     39 F          57.9331   88.4307    7.3862 F       1  UNL1       -0.1643
@<TRIPOS>BOND
     1    18    17    1
     2    18    19    1
     3    18    13    1
     4    13    14    2
     5    13    15   am
     6    15    12    1
     7    12     6    1
     8     6     7   ar
     9     7     8   ar
    10     8     9   ar
    11     9    10   ar
    12    10     1    1
    13     1     2   ar
    14     2     3   ar
    15     3    36    1
    16    36    37    1
    17    36    38    1
    18    36    39    1
    19     3     4   ar
    20     4     5   ar
    21     5    22    1
    22    22    23   ar
    23    23    24   ar
    24    24    25   ar
    25    25    27    1
    26    27    28   ar
    27    28    29   ar
    28    29    30   ar
    29    30    31   ar
    30    31    32   ar
    31    32    33   ar
    32    33    34   ar
    33    34    35   ar
    34    25    26   ar
    35    10    11   ar
    36    11     6   ar
    37     5     1   ar
    38    26    22   ar
    39    35    27   ar
    40    35    31   ar
    41    19    20    1
    42    19    21    1
    43    15    16    1
@<TRIPOS>MOLECULE
*****
 39 43 0 0 0
SMALL
GASTEIGER

@<TRIPOS>ATOM
      1 N          62.5945   83.9413   12.1019 N.ar    1  UNL1       -0.2251
      2 N          62.3964   82.4557   12.0392 N.ar    1  UNL1       -0.1610
      3 C          62.6933   81.8909   13.3967 C.ar    1  UNL1        0.1741
      4 C          63.0750   83.0273   14.2983 C.ar    1  UNL1        0.0488
      5 C          63.0139   84.2945   13.4981 C.ar    1  UNL1        0.1391
      6 C          61.1167   86.8846    9.8877 C.ar    1  UNL1       -0.0011
      7 C          62.0296   86.8309    8.6987 C.ar    1  UNL1       -0.0025
      8 C          63.1308   85.8139    8.6441 C.ar    1  UNL1        0.0013
      9 C          63.3192   84.8506    9.7785 C.ar    1  UNL1        0.0191
     10 C          62.4062   84.9044   10.9675 C.ar    1  UNL1        0.0827
     11 C          61.3050   85.9214   11.0221 C.ar    1  UNL1        0.0165
     12 C          60.0155   87.9016    9.9423 C.3     1  UNL1        0.1164
     13 C          59.1814   88.5738    7.5753 C.2     1  UNL1        0.2367
     14 O          58.6092   87.2001    7.3868 O.2     1  UNL1       -0.2737
     15 N          59.8845   88.9246    8.8530 N.am    1  UNL1       -0.2993
     16 H          60.2601   89.8262    8.9767 H       1  UNL1        0.1498
     17 C          60.2756   90.1164    5.7941 C.3     1  UNL1        0.0267
     18 C          59.0505   89.5967    6.4861 C.3     1  UNL1        0.1284
     19 N          57.6943   90.0999    6.0888 N.3     1  UNL1       -0.3150
     20 H          56.9819   89.6429    6.6580 H       1  UNL1        0.1192
     21 H          57.5288   89.8903    5.1043 H       1  UNL1        0.1192
     22 C          63.3187   85.6730   14.0050 C.ar    1  UNL1        0.2676
     23 N          63.3021   86.1082   15.4404 N.ar    1  UNL1       -0.1053
     24 N          63.6667   87.5623   15.4880 N.ar    1  UNL1       -0.1068
     25 C          63.9086   88.0259   14.0822 C.ar    1  UNL1        0.2505
     26 O          63.6935   86.8582   13.1656 O.2     1  UNL1       -0.4143
     27 C          64.2974   89.4136   13.6659 C.ar    1  UNL1        0.0626
     28 C          65.2366   90.2163   14.5165 C.ar    1  UNL1        0.0053
     29 C          65.6254   91.6040   14.1002 C.ar    1  UNL1        0.0017
     30 C          65.0750   92.1889   12.8334 C.ar    1  UNL1        0.0196
     31 C          64.1357   91.3861   11.9828 C.ar    1  UNL1        0.0881
     32 N          63.4379   91.6952   10.6915 N.ar    1  UNL1       -0.2363
     33 C          62.6179   90.4987   10.3097 C.ar    1  UNL1        0.1345
     34 S          62.8089   89.4500   11.3651 S.2     1  UNL1       -0.0644
     35 C          63.7470   89.9985   12.3991 C.ar    1  UNL1        0.0531
     36 C          62.6212   80.4436   13.7844 C.3     1  UNL1        0.4366
     37 F          62.5491   78.9964   14.1721 F       1  UNL1       -0.1643
     38 F          61.1233   80.5050   13.7347 F       1  UNL1       -0.1643
     39 F          64.1191   80.3823   13.8341 F       1  UNL1       -0.1643
@<TRIPOS>BOND
     1    18    17    1
     2    18    19    1
     3    18    13    1
     4    13    14    2
     5    13    15   am
     6    15    12    1
     7    12     6    1
     8     6     7   ar
     9     7     8   ar
    10     8     9   ar
    11     9    10   ar
    12    10     1    1
    13     1     2   ar
    14     2     3   ar
    15     3    36    1
    16    36    37    1
    17    36    38    1
    18    36    39    1
    19     3     4   ar
    20     4     5   ar
    21     5    22    1
    22    22    23   ar
    23    23    24   ar
    24    24    25   ar
    25    25    27    1
    26    27    28   ar
    27    28    29   ar
    28    29    30   ar
    29    30    31   ar
    30    31    32   ar
    31    32    33   ar
    32    33    34   ar
    33    34    35   ar
    34    25    26   ar
    35    10    11   ar
    36    11     6   ar
    37     5     1   ar
    38    26    22   ar
    39    35    27   ar
    40    35    31   ar
    41    19    20    1
    42    19    21    1
    43    15    16    1
@<TRIPOS>MOLECULE
*****
 39 43 0 0 0
SMALL
GASTEIGER

@<TRIPOS>ATOM
      1 N          61.5270   89.0890    9.6148 N.ar    1  UNL1       -0.2251
      2 N          60.6642   89.9280    8.7194 N.ar    1  UNL1       -0.1610
      3 C          59.9859   89.0153    7.7413 C.ar    1  UNL1        0.1741
      4 C          60.4294   87.6122    8.0321 C.ar    1  UNL1        0.0488
      5 C          61.3819   87.6578    9.1900 C.ar    1  UNL1        0.1391
      6 C          64.0451   91.3515   11.6861 C.ar    1  UNL1       -0.0011
      7 C          64.0990   90.6008   12.9836 C.ar    1  UNL1       -0.0025
      8 C          63.2956   89.3462   13.1582 C.ar    1  UNL1        0.0013
      9 C          62.4383   88.8423   12.0353 C.ar    1  UNL1        0.0191
     10 C          62.3843   89.5929   10.7378 C.ar    1  UNL1        0.0827
     11 C          63.1877   90.8475   10.5632 C.ar    1  UNL1        0.0165
     12 C          64.8485   92.6061   11.5115 C.3     1  UNL1        0.1164
     13 C          66.8144   93.8525   10.3577 C.2     1  UNL1        0.2367
     14 O          66.7925   94.8900   11.4408 O.2     1  UNL1       -0.2737
     15 N          65.8425   92.7106   10.3930 N.am    1  UNL1       -0.2993
     16 H          65.8570   92.0297    9.6821 H       1  UNL1        0.1498
     17 C          68.6299   92.7633    8.8518 C.3     1  UNL1        0.0267
     18 C          67.8085   93.9571    9.2392 C.3     1  UNL1        0.1284
     19 N          67.9811   95.2555    8.5080 N.3     1  UNL1       -0.3150
     20 H          67.3482   95.9530    8.8997 H       1  UNL1        0.1192
     21 H          67.7681   95.1201    7.5197 H       1  UNL1        0.1192
     22 C          62.0686   86.4790    9.8137 C.ar    1  UNL1        0.2676
     23 N          62.7518   85.3653    9.0769 N.ar    1  UNL1       -0.1053
     24 N          63.2982   84.4051   10.0915 N.ar    1  UNL1       -0.1068
     25 C          62.9527   84.9253   11.4553 C.ar    1  UNL1        0.2505
     26 O          62.1928   86.2071   11.2836 O.2     1  UNL1       -0.4143
     27 C          63.3053   84.2775   12.7614 C.ar    1  UNL1        0.0626
     28 C          63.8460   85.1070   13.8882 C.ar    1  UNL1        0.0053
     29 C          64.1985   84.4592   15.1944 C.ar    1  UNL1        0.0017
     30 C          64.0103   82.9819   15.3738 C.ar    1  UNL1        0.0196
     31 C          63.4696   82.1524   14.2470 C.ar    1  UNL1        0.0881
     32 N          63.1783   80.6856   14.1304 N.ar    1  UNL1       -0.2363
     33 C          62.6458   80.4268   12.7523 C.ar    1  UNL1        0.1345
     34 S          62.6079   81.7338   12.0170 S.2     1  UNL1       -0.0644
     35 C          63.1171   82.8002   12.9409 C.ar    1  UNL1        0.0531
     36 C          59.0316   89.4325    6.6618 C.3     1  UNL1        0.4366
     37 F          58.0773   89.8497    5.5823 F       1  UNL1       -0.1643
     38 F          60.1107   90.2588    6.0272 F       1  UNL1       -0.1643
     39 F          57.9525   88.6063    7.2963 F       1  UNL1       -0.1643
@<TRIPOS>BOND
     1    18    17    1
     2    18    19    1
     3    18    13    1
     4    13    14    2
     5    13    15   am
     6    15    12    1
     7    12     6    1
     8     6     7   ar
     9     7     8   ar
    10     8     9   ar
    11     9    10   ar
    12    10     1    1
    13     1     2   ar
    14     2     3   ar
    15     3    36    1
    16    36    37    1
    17    36    38    1
    18    36    39    1
    19     3     4   ar
    20     4     5   ar
    21     5    22    1
    22    22    23   ar
    23    23    24   ar
    24    24    25   ar
    25    25    27    1
    26    27    28   ar
    27    28    29   ar
    28    29    30   ar
    29    30    31   ar
    30    31    32   ar
    31    32    33   ar
    32    33    34   ar
    33    34    35   ar
    34    25    26   ar
    35    10    11   ar
    36    11     6   ar
    37     5     1   ar
    38    26    22   ar
    39    35    27   ar
    40    35    31   ar
    41    19    20    1
    42    19    21    1
    43    15    16    1
@<TRIPOS>MOLECULE
*****
 39 43 0 0 0
SMALL
GASTEIGER

@<TRIPOS>ATOM
      1 N          62.6485   85.4097   11.6200 N.ar    1  UNL1       -0.2251
      2 N          62.8278   84.1154   12.3566 N.ar    1  UNL1       -0.1610
      3 C          63.3171   84.4327   13.7386 C.ar    1  UNL1        0.1741
      4 C          63.4402   85.9230   13.8561 C.ar    1  UNL1        0.0488
      5 C          63.0270   86.5269   12.5467 C.ar    1  UNL1        0.1391
      6 C          60.3617   86.3288    8.5093 C.ar    1  UNL1       -0.0011
      7 C          61.2249   85.8617    7.3750 C.ar    1  UNL1       -0.0025
      8 C          62.5627   85.2440    7.6556 C.ar    1  UNL1        0.0013
      9 C          63.0372   85.0933    9.0706 C.ar    1  UNL1        0.0191
     10 C          62.1740   85.5604   10.2049 C.ar    1  UNL1        0.0827
     11 C          60.8363   86.1781    9.9243 C.ar    1  UNL1        0.0165
     12 C          59.0239   86.9465    8.2287 C.3     1  UNL1        0.1164
     13 C          59.4457   89.2743    7.1548 C.2     1  UNL1        0.2367
     14 O          60.1908   89.7060    8.3829 O.2     1  UNL1       -0.2737
     15 N          58.8622   87.8946    7.0776 N.am    1  UNL1       -0.2993
     16 H          58.3731   87.6113    6.2715 H       1  UNL1        0.1498
     17 C          57.9119   90.6248    5.5505 C.3     1  UNL1        0.0267
     18 C          59.2840   90.2224    6.0037 C.3     1  UNL1        0.1284
     19 N          60.4945   90.7683    5.3058 N.3     1  UNL1       -0.3150
     20 H          61.3366   90.3921    5.7415 H       1  UNL1        0.1192
     21 H          60.4992   91.7856    5.3789 H       1  UNL1        0.1192
     22 C          62.9974   87.9908   12.2211 C.ar    1  UNL1        0.2676
     23 N          61.8268   88.7472   11.6663 N.ar    1  UNL1       -0.1053
     24 N          62.2391   90.1792   11.4955 N.ar    1  UNL1       -0.1068
     25 C          63.6644   90.3079   11.9447 C.ar    1  UNL1        0.2505
     26 O          64.1331   88.9554   12.3931 O.2     1  UNL1       -0.4143
     27 C          64.4783   91.5680   11.9453 C.ar    1  UNL1        0.0626
     28 C          64.5981   92.3841   10.6925 C.ar    1  UNL1        0.0053
     29 C          65.4119   93.6441   10.6931 C.ar    1  UNL1        0.0017
     30 C          66.1061   94.0880   11.9466 C.ar    1  UNL1        0.0196
     31 C          65.9863   93.2718   13.1994 C.ar    1  UNL1        0.0881
     32 N          66.5531   93.4567   14.5758 N.ar    1  UNL1       -0.2363
     33 C          66.0897   92.3110   15.4258 C.ar    1  UNL1        0.1345
     34 S          65.2363   91.4180   14.5747 S.2     1  UNL1       -0.0644
     35 C          65.1724   92.0118   13.1987 C.ar    1  UNL1        0.0531
     36 C          63.6286   83.4347   14.8143 C.3     1  UNL1        0.4366
     37 F          63.9400   82.4367   15.8900 F       1  UNL1       -0.1643
     38 F          62.1808   83.0469   14.8737 F       1  UNL1       -0.1643
     39 F          65.0763   83.8225   14.7549 F       1  UNL1       -0.1643
@<TRIPOS>BOND
     1    18    17    1
     2    18    19    1
     3    18    13    1
     4    13    14    2
     5    13    15   am
     6    15    12    1
     7    12     6    1
     8     6     7   ar
     9     7     8   ar
    10     8     9   ar
    11     9    10   ar
    12    10     1    1
    13     1     2   ar
    14     2     3   ar
    15     3    36    1
    16    36    37    1
    17    36    38    1
    18    36    39    1
    19     3     4   ar
    20     4     5   ar
    21     5    22    1
    22    22    23   ar
    23    23    24   ar
    24    24    25   ar
    25    25    27    1
    26    27    28   ar
    27    28    29   ar
    28    29    30   ar
    29    30    31   ar
    30    31    32   ar
    31    32    33   ar
    32    33    34   ar
    33    34    35   ar
    34    25    26   ar
    35    10    11   ar
    36    11     6   ar
    37     5     1   ar
    38    26    22   ar
    39    35    27   ar
    40    35    31   ar
    41    19    20    1
    42    19    21    1
    43    15    16    1
@<TRIPOS>MOLECULE
*****
 39 43 0 0 0
SMALL
GASTEIGER

@<TRIPOS>ATOM
      1 N          62.5369   84.1653   11.8824 N.ar    1  UNL1       -0.2251
      2 N          62.3209   82.6847   11.9874 N.ar    1  UNL1       -0.1610
      3 C          62.6830   82.2611   13.3800 C.ar    1  UNL1        0.1741
      4 C          63.1229   83.4798   14.1357 C.ar    1  UNL1        0.0488
      5 C          63.0326   84.6568   13.2101 C.ar    1  UNL1        0.1391
      6 C          61.1011   86.9993    9.5040 C.ar    1  UNL1       -0.0011
      7 C          61.8231   86.6898    8.2261 C.ar    1  UNL1       -0.0025
      8 C          62.7831   85.5387    8.1671 C.ar    1  UNL1        0.0013
      9 C          63.0210   84.6972    9.3858 C.ar    1  UNL1        0.0191
     10 C          62.2990   85.0068   10.6636 C.ar    1  UNL1        0.0827
     11 C          61.3391   86.1579   10.7227 C.ar    1  UNL1        0.0165
     12 C          60.1412   88.1504    9.5630 C.3     1  UNL1        0.1164
     13 C          59.2991   89.0109    7.2608 C.2     1  UNL1        0.2367
     14 O          58.4386   87.7905    7.1192 O.2     1  UNL1       -0.2737
     15 N          60.1504   89.1909    8.4826 N.am    1  UNL1       -0.2993
     16 H          60.7151   89.9919    8.5755 H       1  UNL1        0.1498
     17 C          58.0154   90.6223    5.6778 C.3     1  UNL1        0.0267
     18 C          59.3083   90.0514    6.1804 C.3     1  UNL1        0.1284
     19 N          60.6105   90.5211    5.6025 N.3     1  UNL1       -0.3150
     20 H          61.3808   90.0312    6.0574 H       1  UNL1        0.1192
     21 H          60.7082   91.5248    5.7558 H       1  UNL1        0.1192
     22 C          63.3774   86.0760   13.5522 C.ar    1  UNL1        0.2676
     23 N          63.6914   86.6015   14.9215 N.ar    1  UNL1       -0.1053
     24 N          63.9768   88.0690   14.8006 N.ar    1  UNL1       -0.1068
     25 C          63.8392   88.4506   13.3565 C.ar    1  UNL1        0.2505
     26 O          63.4687   87.2188   12.5849 O.2     1  UNL1       -0.4143
     27 C          64.0372   89.8230   12.7844 C.ar    1  UNL1        0.0626
     28 C          63.4097   90.1859   11.4712 C.ar    1  UNL1        0.0053
     29 C          63.6078   91.5583   10.8991 C.ar    1  UNL1        0.0017
     30 C          64.4333   92.5678   11.6402 C.ar    1  UNL1        0.0196
     31 C          65.0609   92.2049   12.9535 C.ar    1  UNL1        0.0881
     32 N          65.9200   92.9840   13.9047 N.ar    1  UNL1       -0.2363
     33 C          66.2529   92.0933   15.0647 C.ar    1  UNL1        0.1345
     34 S          65.5995   90.7635   14.8303 S.2     1  UNL1       -0.0644
     35 C          64.8628   90.8326   13.5255 C.ar    1  UNL1        0.0531
     36 C          62.6169   80.8638   13.9217 C.3     1  UNL1        0.4366
     37 F          62.5508   79.4666   14.4635 F       1  UNL1       -0.1643
     38 F          64.1089   80.8530   14.0756 F       1  UNL1       -0.1643
     39 F          61.1249   80.8747   13.7679 F       1  UNL1       -0.1643
@<TRIPOS>BOND
     1    18    17    1
     2    18    19    1
     3    18    13    1
     4    13    14    2
     5    13    15   am
     6    15    12    1
     7    12     6    1
     8     6     7   ar
     9     7     8   ar
    10     8     9   ar
    11     9    10   ar
    12    10     1    1
    13     1     2   ar
    14     2     3   ar
    15     3    36    1
    16    36    37    1
    17    36    38    1
    18    36    39    1
    19     3     4   ar
    20     4     5   ar
    21     5    22    1
    22    22    23   ar
    23    23    24   ar
    24    24    25   ar
    25    25    27    1
    26    27    28   ar
    27    28    29   ar
    28    29    30   ar
    29    30    31   ar
    30    31    32   ar
    31    32    33   ar
    32    33    34   ar
    33    34    35   ar
    34    25    26   ar
    35    10    11   ar
    36    11     6   ar
    37     5     1   ar
    38    26    22   ar
    39    35    27   ar
    40    35    31   ar
    41    19    20    1
    42    19    21    1
    43    15    16    1
