@<TRIPOS>MOLECULE
*****
 25 27 0 0 0
SMALL
GASTEIGER

@<TRIPOS>ATOM
      1 C          63.6916   87.6310   13.3320 C.ar    1  UNL1       -0.0223
      2 C          63.2703   88.6107   12.2772 C.ar    1  UNL1       -0.0012
      3 C          63.5567   90.0724   12.4539 C.ar    1  UNL1        0.0366
      4 C          64.2645   90.5546   13.6853 C.ar    1  UNL1        0.1385
      5 C          64.6858   89.5749   14.7402 C.ar    1  UNL1        0.0366
      6 C          64.3994   88.1131   14.5635 C.ar    1  UNL1       -0.0012
      7 C          62.8323   83.2457   12.8021 C.3     1  UNL1        0.0576
      8 C          62.4527   84.2197   11.7264 C.3     1  UNL1        0.0163
      9 C          62.7392   85.6815   11.9030 C.3     1  UNL1        0.0057
     10 C          63.4052   86.1693   13.1554 C.3     1  UNL1        0.0224
     11 C          63.7847   85.1953   14.2311 C.3     1  UNL1        0.0057
     12 C          63.4983   83.7335   14.0544 C.3     1  UNL1        0.0163
     13 C          61.7729   81.0392   13.6732 C.3     1  UNL1        0.0896
     14 N          62.5459   81.7840   12.6254 N.3     1  UNL1       -0.2716
     15 C          63.0324   81.0670   11.4010 C.3     1  UNL1        0.0896
     16 O          64.5509   92.0163   13.8620 O.3     1  UNL1       -0.4754
     17 C          65.8511   92.4582   14.4655 C.3     1  UNL1        0.2068
     18 C          66.6334   93.5694   13.8304 C.3     1  UNL1        0.0646
     19 C          66.1926   94.1406   12.5153 C.3     1  UNL1        0.0759
     20 N          66.9070   93.7564   11.2536 N.3     1  UNL1       -0.2726
     21 C          67.0574   94.7538   10.1434 C.3     1  UNL1        0.0721
     22 C          67.7718   94.3695    8.8816 C.3     1  UNL1        0.0174
     23 C          68.3357   92.9879    8.7300 C.3     1  UNL1        0.0029
     24 C          68.1853   91.9904    9.8402 C.3     1  UNL1        0.0174
     25 C          67.4709   92.3746   11.1020 C.3     1  UNL1        0.0721
@<TRIPOS>BOND
     1    13    14    1
     2    14    15    1
     3     7    14    1
     4     7     8    1
     5     8     9    1
     6     9    10    1
     7    10     1    1
     8     1     2   ar
     9     2     3   ar
    10     3     4   ar
    11     4    16    1
    12    16    17    1
    13    17    18    1
    14    18    19    1
    15    19    20    1
    16    20    21    1
    17    21    22    1
    18    22    23    1
    19    23    24    1
    20    24    25    1
    21     4     5   ar
    22     5     6   ar
    23    10    11    1
    24    11    12    1
    25    12     7    1
    26     6     1   ar
    27    25    20    1
@<TRIPOS>MOLECULE
*****
 25 27 0 0 0
SMALL
GASTEIGER

@<TRIPOS>ATOM
      1 C          64.4296   90.4859   14.4629 C.ar    1  UNL1       -0.0223
      2 C          64.4916   89.0347   14.0886 C.ar    1  UNL1       -0.0012
      3 C          63.9106   87.9984   15.0043 C.ar    1  UNL1        0.0366
      4 C          63.2675   88.4134   16.2944 C.ar    1  UNL1        0.1385
      5 C          63.2055   89.8646   16.6687 C.ar    1  UNL1        0.0366
      6 C          63.7865   90.9008   15.7529 C.ar    1  UNL1       -0.0012
      7 C          66.1727   93.5946   11.7156 C.3     1  UNL1        0.0576
      8 C          65.1519   92.6246   11.1988 C.3     1  UNL1        0.0163
      9 C          64.5709   91.5883   12.1146 C.3     1  UNL1        0.0057
     10 C          65.0106   91.5221   13.5471 C.3     1  UNL1        0.0224
     11 C          66.0314   92.4921   14.0639 C.3     1  UNL1        0.0057
     12 C          66.6124   93.5283   13.1482 C.3     1  UNL1        0.0163
     13 C          67.6177   94.2132    9.6470 C.3     1  UNL1        0.0896
     14 N          66.7537   94.6308   10.7999 N.3     1  UNL1       -0.2716
     15 C          66.4707   96.0847   11.0370 C.3     1  UNL1        0.0896
     16 O          62.6865   87.3771   17.2101 O.3     1  UNL1       -0.4754
     17 C          63.2106   85.9720   17.1811 C.3     1  UNL1        0.2068
     18 C          62.8185   85.0481   16.0663 C.3     1  UNL1        0.0646
     19 C          63.8734   84.3012   15.3051 C.3     1  UNL1        0.0759
     20 N          63.4774   83.3033   14.2576 N.3     1  UNL1       -0.2726
     21 C          62.3033   82.3990   14.4890 C.3     1  UNL1        0.0721
     22 C          61.9073   81.4010   13.4414 C.3     1  UNL1        0.0174
     23 C          62.6855   81.3074   12.1625 C.3     1  UNL1        0.0029
     24 C          63.8597   82.2118   11.9311 C.3     1  UNL1        0.0174
     25 C          64.2557   83.2097   12.9786 C.3     1  UNL1        0.0721
@<TRIPOS>BOND
     1    13    14    1
     2    14    15    1
     3     7    14    1
     4     7     8    1
     5     8     9    1
     6     9    10    1
     7    10     1    1
     8     1     2   ar
     9     2     3   ar
    10     3     4   ar
    11     4    16    1
    12    16    17    1
    13    17    18    1
    14    18    19    1
    15    19    20    1
    16    20    21    1
    17    21    22    1
    18    22    23    1
    19    23    24    1
    20    24    25    1
    21     4     5   ar
    22     5     6   ar
    23    10    11    1
    24    11    12    1
    25    12     7    1
    26     6     1   ar
    27    25    20    1
@<TRIPOS>MOLECULE
*****
 25 27 0 0 0
SMALL
GASTEIGER

@<TRIPOS>ATOM
      1 C          64.4287   90.4943   14.4669 C.ar    1  UNL1       -0.0223
      2 C          63.7879   90.9144   15.7564 C.ar    1  UNL1       -0.0012
      3 C          63.2055   89.8821   16.6757 C.ar    1  UNL1        0.0366
      4 C          63.2638   88.4297   16.3055 C.ar    1  UNL1        0.1385
      5 C          63.9046   88.0096   15.0160 C.ar    1  UNL1        0.0366
      6 C          64.4870   89.0419   14.0967 C.ar    1  UNL1       -0.0012
      7 C          66.1760   93.5912   11.7089 C.3     1  UNL1        0.0576
      8 C          66.6180   93.5273   13.1409 C.3     1  UNL1        0.0163
      9 C          66.0355   92.4950   14.0602 C.3     1  UNL1        0.0057
     10 C          65.0111   91.5266   13.5475 C.3     1  UNL1        0.0224
     11 C          64.5692   91.5905   12.1156 C.3     1  UNL1        0.0057
     12 C          65.1516   92.6228   11.1963 C.3     1  UNL1        0.0163
     13 C          67.6268   94.2012    9.6418 C.3     1  UNL1        0.0896
     14 N          66.7584   94.6235   10.7896 N.3     1  UNL1       -0.2716
     15 C          66.4725   96.0781   11.0181 C.3     1  UNL1        0.0896
     16 O          62.6814   87.3974   17.2248 O.3     1  UNL1       -0.4754
     17 C          63.2121   85.9946   17.2095 C.3     1  UNL1        0.2068
     18 C          62.8157   85.0547   16.1097 C.3     1  UNL1        0.0646
     19 C          63.8703   84.3537   15.3057 C.3     1  UNL1        0.0759
     20 N          63.4760   83.3378   14.2749 N.3     1  UNL1       -0.2726
     21 C          64.2650   83.2123   13.0054 C.3     1  UNL1        0.0721
     22 C          63.8707   82.1964   11.9747 C.3     1  UNL1        0.0174
     23 C          62.6874   81.3060   12.2134 C.3     1  UNL1        0.0029
     24 C          61.8983   81.4315   13.4830 C.3     1  UNL1        0.0174
     25 C          62.2926   82.4474   14.5137 C.3     1  UNL1        0.0721
@<TRIPOS>BOND
     1    13    14    1
     2    14    15    1
     3     7    14    1
     4     7     8    1
     5     8     9    1
     6     9    10    1
     7    10     1    1
     8     1     2   ar
     9     2     3   ar
    10     3     4   ar
    11     4    16    1
    12    16    17    1
    13    17    18    1
    14    18    19    1
    15    19    20    1
    16    20    21    1
    17    21    22    1
    18    22    23    1
    19    23    24    1
    20    24    25    1
    21     4     5   ar
    22     5     6   ar
    23    10    11    1
    24    11    12    1
    25    12     7    1
    26     6     1   ar
    27    25    20    1
@<TRIPOS>MOLECULE
*****
 25 27 0 0 0
SMALL
GASTEIGER

@<TRIPOS>ATOM
      1 C          63.1961   89.3236   12.2716 C.ar    1  UNL1       -0.0223
      2 C          63.7401   88.5732   13.4510 C.ar    1  UNL1       -0.0012
      3 C          64.5075   89.3015   14.5143 C.ar    1  UNL1        0.0366
      4 C          64.7309   90.7802   14.3983 C.ar    1  UNL1        0.1385
      5 C          64.1869   91.5306   13.2189 C.ar    1  UNL1        0.0366
      6 C          63.4195   90.8023   12.1556 C.ar    1  UNL1       -0.0012
      7 C          60.8938   87.1387    9.0817 C.3     1  UNL1        0.0576
      8 C          60.9024   88.6384    9.1063 C.3     1  UNL1        0.0163
      9 C          61.6698   89.3667   10.1696 C.3     1  UNL1        0.0057
     10 C          62.4287   88.5953   11.2083 C.3     1  UNL1        0.0224
     11 C          62.4201   87.0955   11.1837 C.3     1  UNL1        0.0057
     12 C          61.6527   86.3672   10.1204 C.3     1  UNL1        0.0163
     13 C          60.7762   85.2937    7.2562 C.3     1  UNL1        0.0896
     14 N          60.1264   86.4104    8.0183 N.3     1  UNL1       -0.2716
     15 C          58.7093   86.7987    7.7171 C.3     1  UNL1        0.0896
     16 O          65.4983   91.5085   15.4616 O.3     1  UNL1       -0.4754
     17 C          66.2635   92.7514   15.1160 C.3     1  UNL1        0.2068
     18 C          67.5949   92.6470   14.4330 C.3     1  UNL1        0.0646
     19 C          67.7106   91.9285   13.1213 C.3     1  UNL1        0.0759
     20 N          67.4928   92.6723   11.8370 N.3     1  UNL1       -0.2726
     21 C          66.5788   93.8612   11.8045 C.3     1  UNL1        0.0721
     22 C          66.3611   94.6050   10.5202 C.3     1  UNL1        0.0174
     23 C          67.0573   94.1599    9.2684 C.3     1  UNL1        0.0029
     24 C          67.9714   92.9709    9.3009 C.3     1  UNL1        0.0174
     25 C          68.1891   92.2271   10.5851 C.3     1  UNL1        0.0721
@<TRIPOS>BOND
     1    13    14    1
     2    14    15    1
     3     7    14    1
     4     7     8    1
     5     8     9    1
     6     9    10    1
     7    10     1    1
     8     1     2   ar
     9     2     3   ar
    10     3     4   ar
    11     4    16    1
    12    16    17    1
    13    17    18    1
    14    18    19    1
    15    19    20    1
    16    20    21    1
    17    21    22    1
    18    22    23    1
    19    23    24    1
    20    24    25    1
    21     4     5   ar
    22     5     6   ar
    23    10    11    1
    24    11    12    1
    25    12     7    1
    26     6     1   ar
    27    25    20    1
@<TRIPOS>MOLECULE
*****
 25 27 0 0 0
SMALL
GASTEIGER

@<TRIPOS>ATOM
      1 C          63.4343   90.8332   11.8567 C.ar    1  UNL1       -0.0223
      2 C          63.3038   91.0383   10.3766 C.ar    1  UNL1       -0.0012
      3 C          62.0926   90.5292    9.6527 C.ar    1  UNL1        0.0366
      4 C          61.0120   89.8149   10.4091 C.ar    1  UNL1        0.1385
      5 C          61.1425   89.6098   11.8892 C.ar    1  UNL1        0.0366
      6 C          62.3537   90.1189   12.6130 C.ar    1  UNL1       -0.0012
      7 C          67.0678   92.3605   14.0281 C.3     1  UNL1        0.0576
      8 C          66.7105   92.9156   12.6812 C.3     1  UNL1        0.0163
      9 C          65.4994   92.4065   11.9574 C.3     1  UNL1        0.0057
     10 C          64.6455   91.3423   12.5805 C.3     1  UNL1        0.0224
     11 C          65.0027   90.7872   13.9274 C.3     1  UNL1        0.0057
     12 C          66.2139   91.2964   14.6512 C.3     1  UNL1        0.0163
     13 C          68.1208   93.8131   15.9072 C.3     1  UNL1        0.0896
     14 N          68.2789   92.8697   14.7519 N.3     1  UNL1       -0.2716
     15 C          69.6483   92.4353   14.3204 C.3     1  UNL1        0.0896
     16 O          59.8009   89.3058    9.6853 O.3     1  UNL1       -0.4754
     17 C          59.7800   89.2775    8.1857 C.3     1  UNL1        0.2068
     18 C          59.2088   88.0920    7.4658 C.3     1  UNL1        0.0646
     19 C          59.2568   86.7340    8.1012 C.3     1  UNL1        0.0759
     20 N          60.5781   86.1154    8.4497 N.3     1  UNL1       -0.2726
     21 C          61.0582   86.1227    9.8707 C.3     1  UNL1        0.0721
     22 C          62.3795   85.5041   10.2192 C.3     1  UNL1        0.0174
     23 C          63.2208   84.8782    9.1467 C.3     1  UNL1        0.0029
     24 C          62.7408   84.8709    7.7255 C.3     1  UNL1        0.0174
     25 C          61.4195   85.4895    7.3770 C.3     1  UNL1        0.0721
@<TRIPOS>BOND
     1    13    14    1
     2    14    15    1
     3     7    14    1
     4     7     8    1
     5     8     9    1
     6     9    10    1
     7    10     1    1
     8     1     2   ar
     9     2     3   ar
    10     3     4   ar
    11     4    16    1
    12    16    17    1
    13    17    18    1
    14    18    19    1
    15    19    20    1
    16    20    21    1
    17    21    22    1
    18    22    23    1
    19    23    24    1
    20    24    25    1
    21     4     5   ar
    22     5     6   ar
    23    10    11    1
    24    11    12    1
    25    12     7    1
    26     6     1   ar
    27    25    20    1
@<TRIPOS>MOLECULE
*****
 25 27 0 0 0
SMALL
GASTEIGER

@<TRIPOS>ATOM
      1 C          63.4566   90.8785   11.8470 C.ar    1  UNL1       -0.0223
      2 C          62.3820   90.1394   12.5877 C.ar    1  UNL1       -0.0012
      3 C          61.1736   89.6385   11.8536 C.ar    1  UNL1        0.0366
      4 C          61.0399   89.8767   10.3788 C.ar    1  UNL1        0.1385
      5 C          62.1145   90.6159    9.6380 C.ar    1  UNL1        0.0366
      6 C          63.3229   91.1168   10.3721 C.ar    1  UNL1       -0.0012
      7 C          67.0818   92.3812   14.0493 C.3     1  UNL1        0.0576
      8 C          66.6914   92.9977   12.7387 C.3     1  UNL1        0.0163
      9 C          65.4830   92.4968   12.0046 C.3     1  UNL1        0.0057
     10 C          64.6650   91.3794   12.5811 C.3     1  UNL1        0.0224
     11 C          65.0554   90.7630   13.8916 C.3     1  UNL1        0.0057
     12 C          66.2638   91.2639   14.6257 C.3     1  UNL1        0.0163
     13 C          69.6616   92.4607   14.3459 C.3     1  UNL1        0.0896
     14 N          68.2902   92.8821   14.7834 N.3     1  UNL1       -0.2716
     15 C          68.1271   93.8045   15.9549 C.3     1  UNL1        0.0896
     16 O          59.8315   89.3758    9.6447 O.3     1  UNL1       -0.4754
     17 C          59.9174   88.1215    8.8266 C.3     1  UNL1        0.2068
     18 C          60.4661   86.8652    9.4352 C.3     1  UNL1        0.0646
     19 C          61.8887   86.4657    9.1765 C.3     1  UNL1        0.0759
     20 N          62.5146   85.3613    9.9756 N.3     1  UNL1       -0.2726
     21 C          62.2440   85.2538   11.4470 C.3     1  UNL1        0.0721
     22 C          62.8700   84.1494   12.2460 C.3     1  UNL1        0.0174
     23 C          63.7666   83.1525   11.5737 C.3     1  UNL1        0.0029
     24 C          64.0373   83.2600   10.1021 C.3     1  UNL1        0.0174
     25 C          63.4114   84.3644    9.3031 C.3     1  UNL1        0.0721
@<TRIPOS>BOND
     1    13    14    1
     2    14    15    1
     3     7    14    1
     4     7     8    1
     5     8     9    1
     6     9    10    1
     7    10     1    1
     8     1     2   ar
     9     2     3   ar
    10     3     4   ar
    11     4    16    1
    12    16    17    1
    13    17    18    1
    14    18    19    1
    15    19    20    1
    16    20    21    1
    17    21    22    1
    18    22    23    1
    19    23    24    1
    20    24    25    1
    21     4     5   ar
    22     5     6   ar
    23    10    11    1
    24    11    12    1
    25    12     7    1
    26     6     1   ar
    27    25    20    1
@<TRIPOS>MOLECULE
*****
 25 27 0 0 0
SMALL
GASTEIGER

@<TRIPOS>ATOM
      1 C          61.0203   86.8769    9.2099 C.ar    1  UNL1       -0.0223
      2 C          60.1920   86.3061    8.0972 C.ar    1  UNL1       -0.0012
      3 C          59.4123   87.2192    7.1981 C.ar    1  UNL1        0.0366
      4 C          59.4609   88.7030    7.4117 C.ar    1  UNL1        0.1385
      5 C          60.2892   89.2739    8.5243 C.ar    1  UNL1        0.0366
      6 C          61.0689   88.3608    9.4234 C.ar    1  UNL1       -0.0012
      7 C          63.3594   84.1378   11.9072 C.3     1  UNL1        0.0576
      8 C          62.4111   85.1398   12.4959 C.3     1  UNL1        0.0163
      9 C          61.6314   86.0529   11.5968 C.3     1  UNL1        0.0057
     10 C          61.8000   85.9639   10.1090 C.3     1  UNL1        0.0224
     11 C          62.7483   84.9618    9.5203 C.3     1  UNL1        0.0057
     12 C          63.5280   84.0488   10.4194 C.3     1  UNL1        0.0163
     13 C          64.4294   81.8173   12.3765 C.3     1  UNL1        0.0896
     14 N          64.1391   83.2247   12.8063 N.3     1  UNL1       -0.2716
     15 C          64.6285   83.7191   14.1352 C.3     1  UNL1        0.0896
     16 O          58.6812   89.6161    6.5126 O.3     1  UNL1       -0.4754
     17 C          59.3971   90.4752    5.5129 C.3     1  UNL1        0.2068
     18 C          58.6531   91.5521    4.7802 C.3     1  UNL1        0.0646
     19 C          59.3822   92.7694    4.2936 C.3     1  UNL1        0.0759
     20 N          60.1534   92.7178    3.0081 N.3     1  UNL1       -0.2726
     21 C          61.6075   92.3498    3.0200 C.3     1  UNL1        0.0721
     22 C          62.3787   92.2983    1.7345 C.3     1  UNL1        0.0174
     23 C          61.6958   92.6147    0.4370 C.3     1  UNL1        0.0029
     24 C          60.2416   92.9827    0.4250 C.3     1  UNL1        0.0174
     25 C          59.4705   93.0343    1.7106 C.3     1  UNL1        0.0721
@<TRIPOS>BOND
     1    13    14    1
     2    14    15    1
     3     7    14    1
     4     7     8    1
     5     8     9    1
     6     9    10    1
     7    10     1    1
     8     1     2   ar
     9     2     3   ar
    10     3     4   ar
    11     4    16    1
    12    16    17    1
    13    17    18    1
    14    18    19    1
    15    19    20    1
    16    20    21    1
    17    21    22    1
    18    22    23    1
    19    23    24    1
    20    24    25    1
    21     4     5   ar
    22     5     6   ar
    23    10    11    1
    24    11    12    1
    25    12     7    1
    26     6     1   ar
    27    25    20    1
@<TRIPOS>MOLECULE
*****
 25 27 0 0 0
SMALL
GASTEIGER

@<TRIPOS>ATOM
      1 C          62.8938   86.8249   11.9577 C.ar    1  UNL1       -0.0223
      2 C          62.3140   87.4906   10.7450 C.ar    1  UNL1       -0.0012
      3 C          62.3559   88.9845   10.6174 C.ar    1  UNL1        0.0366
      4 C          62.9775   89.8129   11.7024 C.ar    1  UNL1        0.1385
      5 C          63.5573   89.1472   12.9151 C.ar    1  UNL1        0.0366
      6 C          63.5154   87.6532   13.0428 C.ar    1  UNL1       -0.0012
      7 C          62.7682   82.3430   12.3407 C.3     1  UNL1        0.0576
      8 C          62.6346   83.2041   13.5616 C.3     1  UNL1        0.0163
      9 C          62.6765   84.6981   13.4339 C.3     1  UNL1        0.0057
     10 C          62.8519   85.3309   12.0854 C.3     1  UNL1        0.0224
     11 C          62.9855   84.4699   10.8645 C.3     1  UNL1        0.0057
     12 C          62.9436   82.9759   10.9921 C.3     1  UNL1        0.0163
     13 C          62.8754   79.9877   11.2494 C.3     1  UNL1        0.0896
     14 N          62.7263   80.8490   12.4683 N.3     1  UNL1       -0.2716
     15 C          62.5354   80.2164   13.8149 C.3     1  UNL1        0.0896
     16 O          63.0194   91.3068   11.5748 O.3     1  UNL1       -0.4754
     17 C          64.3005   91.9921   11.2019 C.3     1  UNL1        0.2068
     18 C          65.3962   92.1372   12.2160 C.3     1  UNL1        0.0646
     19 C          66.1332   93.4376   12.3430 C.3     1  UNL1        0.0759
     20 N          66.6172   94.1484   11.1140 N.3     1  UNL1       -0.2726
     21 C          67.3244   93.3836   10.0348 C.3     1  UNL1        0.0721
     22 C          67.8085   94.0944    8.8058 C.3     1  UNL1        0.0174
     23 C          67.5853   95.5701    8.6560 C.3     1  UNL1        0.0029
     24 C          66.8780   96.3350    9.7353 C.3     1  UNL1        0.0174
     25 C          66.3940   95.6242   10.9643 C.3     1  UNL1        0.0721
@<TRIPOS>BOND
     1    13    14    1
     2    14    15    1
     3     7    14    1
     4     7     8    1
     5     8     9    1
     6     9    10    1
     7    10     1    1
     8     1     2   ar
     9     2     3   ar
    10     3     4   ar
    11     4    16    1
    12    16    17    1
    13    17    18    1
    14    18    19    1
    15    19    20    1
    16    20    21    1
    17    21    22    1
    18    22    23    1
    19    23    24    1
    20    24    25    1
    21     4     5   ar
    22     5     6   ar
    23    10    11    1
    24    11    12    1
    25    12     7    1
    26     6     1   ar
    27    25    20    1
@<TRIPOS>MOLECULE
*****
 25 27 0 0 0
SMALL
GASTEIGER

@<TRIPOS>ATOM
      1 C          63.2439   87.1847   12.7740 C.ar    1  UNL1       -0.0223
      2 C          62.7220   87.9861   11.6185 C.ar    1  UNL1       -0.0012
      3 C          62.9327   89.4707   11.5794 C.ar    1  UNL1        0.0366
      4 C          63.6654   90.1539   12.6957 C.ar    1  UNL1        0.1385
      5 C          64.1873   89.3525   13.8513 C.ar    1  UNL1        0.0366
      6 C          63.9766   87.8679   13.8904 C.ar    1  UNL1       -0.0012
      7 C          62.6118   82.7309   12.8915 C.3     1  UNL1        0.0576
      8 C          62.9124   83.4793   14.1561 C.3     1  UNL1        0.0163
      9 C          63.1231   84.9639   14.1170 C.3     1  UNL1        0.0057
     10 C          63.0332   85.7001   12.8132 C.3     1  UNL1        0.0224
     11 C          62.7326   84.9516   11.5485 C.3     1  UNL1        0.0057
     12 C          62.5219   83.4670   11.5877 C.3     1  UNL1        0.0163
     13 C          62.9583   80.3806   11.8397 C.3     1  UNL1        0.0896
     14 N          62.4011   81.2463   12.9306 N.3     1  UNL1       -0.2716
     15 C          61.6332   80.6273   14.0607 C.3     1  UNL1        0.0896
     16 O          63.8761   91.6385   12.6566 O.3     1  UNL1       -0.4754
     17 C          64.4617   92.2810   11.4342 C.3     1  UNL1        0.2068
     18 C          65.7399   93.0594   11.5353 C.3     1  UNL1        0.0646
     19 C          66.9765   92.4040   12.0753 C.3     1  UNL1        0.0759
     20 N          67.2822   92.4729   13.5422 N.3     1  UNL1       -0.2726
     21 C          68.6963   92.3287   14.0212 C.3     1  UNL1        0.0721
     22 C          69.0020   92.3976   15.4881 C.3     1  UNL1        0.0174
     23 C          67.8936   92.6108   16.4760 C.3     1  UNL1        0.0029
     24 C          66.4794   92.7551   15.9970 C.3     1  UNL1        0.0174
     25 C          66.1737   92.6862   14.5301 C.3     1  UNL1        0.0721
@<TRIPOS>BOND
     1    13    14    1
     2    14    15    1
     3     7    14    1
     4     7     8    1
     5     8     9    1
     6     9    10    1
     7    10     1    1
     8     1     2   ar
     9     2     3   ar
    10     3     4   ar
    11     4    16    1
    12    16    17    1
    13    17    18    1
    14    18    19    1
    15    19    20    1
    16    20    21    1
    17    21    22    1
    18    22    23    1
    19    23    24    1
    20    24    25    1
    21     4     5   ar
    22     5     6   ar
    23    10    11    1
    24    11    12    1
    25    12     7    1
    26     6     1   ar
    27    25    20    1
