@<TRIPOS>MOLECULE
*****
 36 39 0 0 0
SMALL
GASTEIGER

@<TRIPOS>ATOM
      1 C          63.3964   84.7171   13.3443 C.3     1  UNL1        0.3254
      2 F          64.6512   85.5201   13.1684 F       1  UNL1       -0.1949
      3 F          62.0183   84.1318   13.2535 F       1  UNL1       -0.1949
      4 C          62.7323   85.5181   12.2638 C.ar    1  UNL1        0.1218
      5 C          61.9943   84.8211   11.1595 C.ar    1  UNL1        0.0202
      6 C          61.3302   85.6221   10.0790 C.ar    1  UNL1        0.0029
      7 C          61.4042   87.1201   10.1028 C.ar    1  UNL1        0.0192
      8 C          62.1423   87.8171   11.2072 C.ar    1  UNL1        0.0986
      9 N          62.8063   87.0161   12.2876 N.ar    1  UNL1       -0.2427
     10 C          60.7402   87.9211    9.0224 C.ar    1  UNL1        0.0015
     11 C          60.7819   89.4199    9.0667 C.ar    1  UNL1       -0.0000
     12 C          60.1179   90.2210    7.9862 C.ar    1  UNL1        0.0039
     13 C          59.4121   89.5233    6.8615 C.ar    1  UNL1        0.0714
     14 C          59.3703   88.0244    6.8172 C.ar    1  UNL1        0.0039
     15 C          60.0343   87.2234    7.8977 C.ar    1  UNL1       -0.0000
     16 C          58.7480   90.3243    5.7811 C.3     1  UNL1        0.4186
     17 F          58.0840   91.1253    4.7006 F       1  UNL1       -0.1659
     18 F          57.4030   89.9241    6.3111 F       1  UNL1       -0.1659
     19 F          60.0930   90.7244    5.2511 F       1  UNL1       -0.1659
     20 O          64.7246   83.1152   15.5052 O.3     1  UNL1       -0.3755
     21 C          64.0605   83.9161   14.4247 C.3     1  UNL1        0.1932
     22 H          65.6757   83.0547   15.3246 H       1  UNL1        0.2110
     23 C          63.6313   82.6480   13.7484 C.ar    1  UNL1        0.0368
     24 C          62.6430   81.7388   14.4170 C.ar    1  UNL1        0.0028
     25 C          62.2138   80.4707   13.7407 C.ar    1  UNL1        0.0295
     26 C          62.7728   80.1115   12.3959 C.ar    1  UNL1        0.1424
     27 F          62.3436   78.8433   11.7196 F       1  UNL1       -0.2041
     28 C          63.7610   81.0205   11.7273 C.ar    1  UNL1        0.0590
     29 C          64.1903   82.2888   12.4036 C.ar    1  UNL1        0.1408
     30 F          65.1786   83.1978   11.7351 F       1  UNL1       -0.2043
     31 C          64.4898   85.1844   15.1011 C.3     1  UNL1        0.1679
     32 N          63.5165   85.9489   15.9485 N.ar    1  UNL1       -0.2078
     33 C          62.4076   85.3586   16.7681 C.ar    1  UNL1        0.2216
     34 N          61.6870   86.4829   17.4513 N.ar    1  UNL1       -0.1048
     35 N          62.3507   87.7681   17.0539 N.ar    1  UNL1       -0.0226
     36 N          63.4814   87.4381   16.1252 N.ar    1  UNL1       -0.0428
@<TRIPOS>BOND
     1    21    20    1
     2    21    31    1
     3    31    32    1
     4    32    33   ar
     5    33    34   ar
     6    34    35   ar
     7    35    36   ar
     8    21    23    1
     9    23    24   ar
    10    24    25   ar
    11    25    26   ar
    12    26    27    1
    13    26    28   ar
    14    28    29   ar
    15    29    30    1
    16    21     1    1
    17     1     2    1
    18     1     3    1
    19     1     4    1
    20     4     5   ar
    21     5     6   ar
    22     6     7   ar
    23     7    10    1
    24    10    11   ar
    25    11    12   ar
    26    12    13   ar
    27    13    16    1
    28    16    17    1
    29    16    18    1
    30    16    19    1
    31    13    14   ar
    32    14    15   ar
    33     7     8   ar
    34     8     9   ar
    35    36    32   ar
    36    29    23   ar
    37     9     4   ar
    38    15    10   ar
    39    20    22    1
@<TRIPOS>MOLECULE
*****
 36 39 0 0 0
SMALL
GASTEIGER

@<TRIPOS>ATOM
      1 C          63.3750   84.7440   12.9958 C.3     1  UNL1        0.3254
      2 F          64.6135   84.7086   12.1502 F       1  UNL1       -0.1949
      3 F          62.0047   84.9739   13.5610 F       1  UNL1       -0.1949
      4 C          62.6783   85.5524   11.9415 C.ar    1  UNL1        0.1218
      5 C          62.0785   84.8704   10.7478 C.ar    1  UNL1        0.0202
      6 C          61.3818   85.6787    9.6936 C.ar    1  UNL1        0.0029
      7 C          61.2851   87.1691    9.8331 C.ar    1  UNL1        0.0192
      8 C          61.8850   87.8511   11.0269 C.ar    1  UNL1        0.0986
      9 N          62.5816   87.0427   12.0811 N.ar    1  UNL1       -0.2427
     10 C          60.5885   87.9774    8.7790 C.ar    1  UNL1        0.0015
     11 C          59.7853   87.2896    7.7151 C.ar    1  UNL1       -0.0000
     12 C          59.0887   88.0979    6.6609 C.ar    1  UNL1        0.0039
     13 C          59.1952   89.5941    6.6706 C.ar    1  UNL1        0.0714
     14 C          59.9984   90.2819    7.7345 C.ar    1  UNL1        0.0039
     15 C          60.6950   89.4736    8.7887 C.ar    1  UNL1       -0.0000
     16 C          58.4986   90.4024    5.6164 C.3     1  UNL1        0.4186
     17 F          57.8021   91.2108    4.5623 F       1  UNL1       -0.1659
     18 F          57.1759   89.8696    6.0819 F       1  UNL1       -0.1659
     19 F          59.8213   90.9352    5.1510 F       1  UNL1       -0.1659
     20 O          64.7682   83.1274   15.1041 O.3     1  UNL1       -0.3755
     21 C          64.0716   83.9357   14.0499 C.3     1  UNL1        0.1932
     22 H          64.1659   82.4446   15.4386 H       1  UNL1        0.2110
     23 C          63.7744   85.0010   15.0632 C.ar    1  UNL1        0.0368
     24 C          64.4565   86.3339   14.9721 C.ar    1  UNL1        0.0028
     25 C          64.1593   87.3992   15.9854 C.ar    1  UNL1        0.0295
     26 C          63.1800   87.1317   17.0897 C.ar    1  UNL1        0.1424
     27 F          62.8828   88.1970   18.1030 F       1  UNL1       -0.2041
     28 C          62.4980   85.7989   17.1808 C.ar    1  UNL1        0.0590
     29 C          62.7952   84.7335   16.1675 C.ar    1  UNL1        0.1408
     30 F          62.1131   83.4007   16.2585 F       1  UNL1       -0.2043
     31 C          64.3688   82.8703   13.0366 C.3     1  UNL1        0.1679
     32 N          63.5587   81.6081   13.0158 N.ar    1  UNL1       -0.2078
     33 C          63.0986   80.8758   11.7903 C.ar    1  UNL1        0.2216
     34 N          62.3220   79.6717   12.2340 N.ar    1  UNL1       -0.1048
     35 N          62.3022   79.6597   13.7338 N.ar    1  UNL1       -0.0226
     36 N          63.0666   80.8565   14.2170 N.ar    1  UNL1       -0.0428
@<TRIPOS>BOND
     1    21    20    1
     2    21    31    1
     3    31    32    1
     4    32    33   ar
     5    33    34   ar
     6    34    35   ar
     7    35    36   ar
     8    21    23    1
     9    23    24   ar
    10    24    25   ar
    11    25    26   ar
    12    26    27    1
    13    26    28   ar
    14    28    29   ar
    15    29    30    1
    16    21     1    1
    17     1     2    1
    18     1     3    1
    19     1     4    1
    20     4     5   ar
    21     5     6   ar
    22     6     7   ar
    23     7    10    1
    24    10    11   ar
    25    11    12   ar
    26    12    13   ar
    27    13    16    1
    28    16    17    1
    29    16    18    1
    30    16    19    1
    31    13    14   ar
    32    14    15   ar
    33     7     8   ar
    34     8     9   ar
    35    36    32   ar
    36    29    23   ar
    37     9     4   ar
    38    15    10   ar
    39    20    22    1
@<TRIPOS>MOLECULE
*****
 36 39 0 0 0
SMALL
GASTEIGER

@<TRIPOS>ATOM
      1 C          61.7053   87.7921   10.6732 C.3     1  UNL1        0.3254
      2 F          60.7605   87.7996   11.8383 F       1  UNL1       -0.1949
      3 F          62.8525   87.9948    9.7284 F       1  UNL1       -0.1949
      4 C          62.6586   88.6596   11.4405 C.ar    1  UNL1        0.1218
      5 C          62.9888   90.0350   10.9415 C.ar    1  UNL1        0.0202
      6 C          63.9422   90.9025   11.7089 C.ar    1  UNL1        0.0029
      7 C          64.5652   90.3944   12.9753 C.ar    1  UNL1        0.0192
      8 C          64.2348   89.0189   13.4743 C.ar    1  UNL1        0.0986
      9 N          63.2816   88.1515   12.7069 N.ar    1  UNL1       -0.2427
     10 C          65.5184   91.2617   13.7427 C.ar    1  UNL1        0.0015
     11 C          66.7400   91.8124   13.0686 C.ar    1  UNL1       -0.0000
     12 C          67.6934   92.6798   13.8360 C.ar    1  UNL1        0.0039
     13 C          67.4251   92.9965   15.2774 C.ar    1  UNL1        0.0714
     14 C          66.2034   92.4458   15.9515 C.ar    1  UNL1        0.0039
     15 C          65.2501   91.5784   15.1841 C.ar    1  UNL1       -0.0000
     16 C          68.3783   93.8639   16.0448 C.3     1  UNL1        0.4186
     17 F          69.3316   94.7312   16.8122 F       1  UNL1       -0.1659
     18 F          68.8897   92.6567   16.7738 F       1  UNL1       -0.1659
     19 F          67.8669   95.0709   15.3158 F       1  UNL1       -0.1659
     20 O          59.7987   86.0574    9.1386 O.3     1  UNL1       -0.3755
     21 C          60.7520   86.9247    9.9059 C.3     1  UNL1        0.1932
     22 H          59.1073   85.7303    9.7352 H       1  UNL1        0.2110
     23 C          61.7040   85.7719   10.0262 C.ar    1  UNL1        0.0368
     24 C          61.9215   85.1146   11.3569 C.ar    1  UNL1        0.0028
     25 C          62.8736   83.9618   11.4772 C.ar    1  UNL1        0.0295
     26 C          63.6082   83.4662   10.2669 C.ar    1  UNL1        0.1424
     27 F          64.5603   82.3134   10.3873 F       1  UNL1       -0.2041
     28 C          63.3908   84.1235    8.9363 C.ar    1  UNL1        0.0590
     29 C          62.4387   85.2764    8.8159 C.ar    1  UNL1        0.1408
     30 F          62.2212   85.9337    7.4853 F       1  UNL1       -0.2043
     31 C          59.7998   88.0776    9.7855 C.3     1  UNL1        0.1679
     32 N          59.5665   88.7215    8.4510 N.ar    1  UNL1       -0.2078
     33 C          60.2098   89.9829    7.9561 C.ar    1  UNL1        0.2216
     34 N          59.6899   90.2580    6.5763 N.ar    1  UNL1       -0.1048
     35 N          58.7252   89.1665    6.2183 N.ar    1  UNL1       -0.0226
     36 N          58.6490   88.2169    7.3770 N.ar    1  UNL1       -0.0428
@<TRIPOS>BOND
     1    21    20    1
     2    21    31    1
     3    31    32    1
     4    32    33   ar
     5    33    34   ar
     6    34    35   ar
     7    35    36   ar
     8    21    23    1
     9    23    24   ar
    10    24    25   ar
    11    25    26   ar
    12    26    27    1
    13    26    28   ar
    14    28    29   ar
    15    29    30    1
    16    21     1    1
    17     1     2    1
    18     1     3    1
    19     1     4    1
    20     4     5   ar
    21     5     6   ar
    22     6     7   ar
    23     7    10    1
    24    10    11   ar
    25    11    12   ar
    26    12    13   ar
    27    13    16    1
    28    16    17    1
    29    16    18    1
    30    16    19    1
    31    13    14   ar
    32    14    15   ar
    33     7     8   ar
    34     8     9   ar
    35    36    32   ar
    36    29    23   ar
    37     9     4   ar
    38    15    10   ar
    39    20    22    1
@<TRIPOS>MOLECULE
*****
 36 39 0 0 0
SMALL
GASTEIGER

@<TRIPOS>ATOM
      1 C          61.5497   88.0479   10.1337 C.3     1  UNL1        0.3254
      2 F          60.4600   88.3120   11.1302 F       1  UNL1       -0.1949
      3 F          62.8335   87.9998    9.3595 F       1  UNL1       -0.1949
      4 C          62.4861   88.9079   10.9297 C.ar    1  UNL1        0.1218
      5 C          62.9298   90.2344   10.3880 C.ar    1  UNL1        0.0202
      6 C          63.8661   91.0945   11.1840 C.ar    1  UNL1        0.0029
      7 C          64.3588   90.6280   12.5218 C.ar    1  UNL1        0.0192
      8 C          63.9150   89.3014   13.0635 C.ar    1  UNL1        0.0986
      9 N          62.9787   88.4414   12.2675 N.ar    1  UNL1       -0.2427
     10 C          65.2951   91.4879   13.3178 C.ar    1  UNL1        0.0015
     11 C          65.7127   92.8289   12.7912 C.ar    1  UNL1       -0.0000
     12 C          66.6490   93.6889   13.5872 C.ar    1  UNL1        0.0039
     13 C          67.1678   93.2079   14.9099 C.ar    1  UNL1        0.0714
     14 C          66.7502   91.8669   15.4366 C.ar    1  UNL1        0.0039
     15 C          65.8138   91.0069   14.6405 C.ar    1  UNL1       -0.0000
     16 C          68.1041   94.0679   15.7060 C.3     1  UNL1        0.4186
     17 F          69.0404   94.9279   16.5020 F       1  UNL1       -0.1659
     18 F          67.6751   95.2677   14.9144 F       1  UNL1       -0.1659
     19 F          68.5331   92.8681   16.4974 F       1  UNL1       -0.1659
     20 O          59.6770   86.3279    8.5417 O.3     1  UNL1       -0.3755
     21 C          60.6134   87.1879    9.3377 C.3     1  UNL1        0.1932
     22 H          58.9853   85.9776    9.1246 H       1  UNL1        0.2110
     23 C          61.5790   86.0444    9.4372 C.ar    1  UNL1        0.0368
     24 C          62.2924   85.5563    8.2113 C.ar    1  UNL1        0.0028
     25 C          63.2580   84.4128    8.3108 C.ar    1  UNL1        0.0295
     26 C          63.5103   83.7574    9.6363 C.ar    1  UNL1        0.1424
     27 F          64.4759   82.6139    9.7358 F       1  UNL1       -0.2041
     28 C          62.7969   84.2454   10.8622 C.ar    1  UNL1        0.0590
     29 C          61.8313   85.3890   10.7627 C.ar    1  UNL1        0.1408
     30 F          61.1179   85.8771   11.9886 F       1  UNL1       -0.2043
     31 C          59.6477   88.3314    9.2381 C.3     1  UNL1        0.1679
     32 N          59.4229   89.0106    7.9198 N.ar    1  UNL1       -0.2078
     33 C          60.3040   90.0579    7.3059 C.ar    1  UNL1        0.2216
     34 N          59.7032   90.4563    5.9905 N.ar    1  UNL1       -0.1048
     35 N          58.4506   89.6553    5.7915 N.ar    1  UNL1       -0.0226
     36 N          58.2774   88.7619    6.9838 N.ar    1  UNL1       -0.0428
@<TRIPOS>BOND
     1    21    20    1
     2    21    31    1
     3    31    32    1
     4    32    33   ar
     5    33    34   ar
     6    34    35   ar
     7    35    36   ar
     8    21    23    1
     9    23    24   ar
    10    24    25   ar
    11    25    26   ar
    12    26    27    1
    13    26    28   ar
    14    28    29   ar
    15    29    30    1
    16    21     1    1
    17     1     2    1
    18     1     3    1
    19     1     4    1
    20     4     5   ar
    21     5     6   ar
    22     6     7   ar
    23     7    10    1
    24    10    11   ar
    25    11    12   ar
    26    12    13   ar
    27    13    16    1
    28    16    17    1
    29    16    18    1
    30    16    19    1
    31    13    14   ar
    32    14    15   ar
    33     7     8   ar
    34     8     9   ar
    35    36    32   ar
    36    29    23   ar
    37     9     4   ar
    38    15    10   ar
    39    20    22    1
@<TRIPOS>MOLECULE
*****
 36 39 0 0 0
SMALL
GASTEIGER

@<TRIPOS>ATOM
      1 C          64.1997   89.4798   14.6353 C.3     1  UNL1        0.3254
      2 F          62.8611   89.8839   14.0920 F       1  UNL1       -0.1949
      3 F          65.4508   88.7530   15.0305 F       1  UNL1       -0.1949
      4 C          64.0033   88.0962   14.0901 C.ar    1  UNL1        0.1218
      5 C          64.5488   86.9129   14.8331 C.ar    1  UNL1        0.0202
      6 C          64.3524   85.5293   14.2879 C.ar    1  UNL1        0.0029
      7 C          63.6106   85.3291   12.9997 C.ar    1  UNL1        0.0192
      8 C          63.0650   86.5126   12.2567 C.ar    1  UNL1        0.0986
      9 N          63.2614   87.8961   12.8019 N.ar    1  UNL1       -0.2427
     10 C          63.4142   83.9456   12.4545 C.ar    1  UNL1        0.0015
     11 C          63.9564   83.5884   11.1023 C.ar    1  UNL1       -0.0000
     12 C          63.7601   82.2049   10.5570 C.ar    1  UNL1        0.0039
     13 C          63.0214   81.1786   11.3640 C.ar    1  UNL1        0.0714
     14 C          62.4791   81.5358   12.7162 C.ar    1  UNL1        0.0039
     15 C          62.6755   82.9193   13.2614 C.ar    1  UNL1       -0.0000
     16 C          62.8251   79.7951   10.8187 C.3     1  UNL1        0.4186
     17 F          62.6287   78.4116   10.2735 F       1  UNL1       -0.1659
     18 F          62.4583   79.3072   12.1890 F       1  UNL1       -0.1659
     19 F          63.1918   80.2830    9.4486 F       1  UNL1       -0.1659
     20 O          64.5923   92.2469   15.7257 O.3     1  UNL1       -0.3755
     21 C          64.3960   90.8634   15.1805 C.3     1  UNL1        0.1932
     22 H          63.7431   92.7157   15.7314 H       1  UNL1        0.2110
     23 C          64.8868   91.3222   13.8394 C.ar    1  UNL1        0.0368
     24 C          63.9348   91.4146   12.6838 C.ar    1  UNL1        0.0028
     25 C          64.4256   91.8735   11.3427 C.ar    1  UNL1        0.0295
     26 C          65.8683   92.2398   11.1571 C.ar    1  UNL1        0.1424
     27 F          66.3591   92.6986    9.8160 F       1  UNL1       -0.2041
     28 C          66.8202   92.1473   12.3126 C.ar    1  UNL1        0.0590
     29 C          66.3294   91.6885   13.6538 C.ar    1  UNL1        0.1408
     30 F          67.2814   91.5961   14.8093 F       1  UNL1       -0.2043
     31 C          63.9052   90.4046   16.5217 C.3     1  UNL1        0.1679
     32 N          62.8680   89.3247   16.6116 N.ar    1  UNL1       -0.2078
     33 C          63.0401   87.9898   17.2736 C.ar    1  UNL1        0.2216
     34 N          61.7551   87.2302   17.1264 N.ar    1  UNL1       -0.1048
     35 N          60.7887   88.0958   16.3734 N.ar    1  UNL1       -0.0226
     36 N          61.4765   89.3902   16.0552 N.ar    1  UNL1       -0.0428
@<TRIPOS>BOND
     1    21    20    1
     2    21    31    1
     3    31    32    1
     4    32    33   ar
     5    33    34   ar
     6    34    35   ar
     7    35    36   ar
     8    21    23    1
     9    23    24   ar
    10    24    25   ar
    11    25    26   ar
    12    26    27    1
    13    26    28   ar
    14    28    29   ar
    15    29    30    1
    16    21     1    1
    17     1     2    1
    18     1     3    1
    19     1     4    1
    20     4     5   ar
    21     5     6   ar
    22     6     7   ar
    23     7    10    1
    24    10    11   ar
    25    11    12   ar
    26    12    13   ar
    27    13    16    1
    28    16    17    1
    29    16    18    1
    30    16    19    1
    31    13    14   ar
    32    14    15   ar
    33     7     8   ar
    34     8     9   ar
    35    36    32   ar
    36    29    23   ar
    37     9     4   ar
    38    15    10   ar
    39    20    22    1
