@<TRIPOS>MOLECULE
*****
 27 30 0 0 0
SMALL
GASTEIGER

@<TRIPOS>ATOM
      1 C          62.9104   89.1331   11.9005 C.2     1  UNL1        0.1394
      2 C          63.3590   90.2555   12.7887 C.2     1  UNL1        0.1224
      3 C          64.0115   89.9549   14.1055 C.2     1  UNL1        0.3253
      4 N          64.4601   91.0773   14.9938 N.pl3   1  UNL1       -0.2459
      5 N          64.2154   88.5319   14.5340 N.2     1  UNL1        0.0019
      6 C          63.7667   87.4096   13.6458 C.2     1  UNL1        0.3660
      7 N          63.8339   85.9191   13.8002 N.2     1  UNL1       -0.0380
      8 C          63.2230   85.2985   12.5789 C.2     1  UNL1        0.1900
      9 C          62.7782   86.4054   11.6696 C.2     1  UNL1        0.0396
     10 C          63.1143   87.7102   12.3290 C.3     1  UNL1        0.1944
     11 H          64.3263   92.0112   14.7125 H       1  UNL1        0.2884
     12 H          64.8884   90.8800   15.8581 H       1  UNL1        0.2884
     13 C          63.0817   83.8289   12.3134 C.ar    1  UNL1        0.0429
     14 C          62.2988   82.9678   13.2596 C.ar    1  UNL1        0.0060
     15 C          62.1574   81.4982   12.9942 C.ar    1  UNL1        0.0298
     16 C          62.7990   80.8898   11.7826 C.ar    1  UNL1        0.1401
     17 F          62.6577   79.4203   11.5171 F       1  UNL1       -0.2042
     18 C          63.5820   81.7510   10.8363 C.ar    1  UNL1        0.0298
     19 C          63.7233   83.2205   11.1018 C.ar    1  UNL1        0.0060
     20 C          62.1140   86.2372   10.3353 C.ar    1  UNL1        0.0037
     21 C          60.6849   86.6538   10.1510 C.ar    1  UNL1        0.0205
     22 C          60.0207   86.4856    8.8166 C.ar    1  UNL1        0.0989
     23 N          60.7857   85.9008    7.6664 N.ar    1  UNL1       -0.2423
     24 C          62.2148   85.4842    7.8507 C.ar    1  UNL1        0.0989
     25 C          62.8790   85.6524    9.1850 C.ar    1  UNL1        0.0205
     26 C          60.9966   90.2442   10.5393 C.3     1  UNL1        0.2520
     27 O          62.2580   89.4337   10.5837 O.2     1  UNL1       -0.4745
@<TRIPOS>BOND
     1    26    27    1
     2    27     1    1
     3     1     2    2
     4     2     3    1
     5     3     4    1
     6     3     5    2
     7     5     6    1
     8     6     7    2
     9     7     8    1
    10     8    13    1
    11    13    14   ar
    12    14    15   ar
    13    15    16   ar
    14    16    17    1
    15    16    18   ar
    16    18    19   ar
    17     8     9    2
    18     9    20    1
    19    20    21   ar
    20    21    22   ar
    21    22    23   ar
    22    23    24   ar
    23    24    25   ar
    24     9    10    1
    25    10     1    1
    26    10     6    1
    27    19    13   ar
    28    25    20   ar
    29     4    11    1
    30     4    12    1
@<TRIPOS>MOLECULE
*****
 27 30 0 0 0
SMALL
GASTEIGER

@<TRIPOS>ATOM
      1 C          63.9318   87.2645   14.2595 C.2     1  UNL1        0.1394
      2 C          64.1766   88.5223   15.0392 C.2     1  UNL1        0.1224
      3 C          63.8795   89.8569   14.4224 C.2     1  UNL1        0.3253
      4 N          64.1243   91.1147   15.2022 N.pl3   1  UNL1       -0.2459
      5 N          63.3376   89.9338   13.0258 N.2     1  UNL1        0.0019
      6 C          63.0928   88.6760   12.2461 C.2     1  UNL1        0.3660
      7 N          62.5691   88.4399   10.8604 N.2     1  UNL1       -0.0380
      8 C          62.5424   86.9594   10.6209 C.2     1  UNL1        0.1900
      9 C          63.0497   86.2805   11.8585 C.2     1  UNL1        0.0396
     10 C          63.3899   87.3413   12.8629 C.3     1  UNL1        0.1944
     11 H          64.4800   91.0643   16.1188 H       1  UNL1        0.2884
     12 H          63.9294   91.9907   14.7973 H       1  UNL1        0.2884
     13 C          62.0882   86.2776    9.3644 C.ar    1  UNL1        0.0429
     14 C          60.6570   86.3844    8.9285 C.ar    1  UNL1        0.0060
     15 C          60.2028   85.7026    7.6720 C.ar    1  UNL1        0.0298
     16 C          61.1798   84.9140    6.8514 C.ar    1  UNL1        0.1401
     17 F          60.7256   84.2321    5.5948 F       1  UNL1       -0.2042
     18 C          62.6111   84.8072    7.2873 C.ar    1  UNL1        0.0298
     19 C          63.0653   85.4890    8.5438 C.ar    1  UNL1        0.0060
     20 C          63.1919   84.8005   12.0569 C.ar    1  UNL1        0.0037
     21 C          62.3490   84.0962   13.0783 C.ar    1  UNL1        0.0205
     22 C          62.4912   82.6162   13.2767 C.ar    1  UNL1        0.0989
     23 N          63.4764   81.8404   12.4536 N.ar    1  UNL1       -0.2423
     24 C          64.3193   82.5446   11.4321 C.ar    1  UNL1        0.0989
     25 C          64.1771   84.0246   11.2337 C.ar    1  UNL1        0.0205
     26 C          63.6967   85.5982   16.2389 C.3     1  UNL1        0.2520
     27 O          64.2288   85.9298   14.8763 O.2     1  UNL1       -0.4745
@<TRIPOS>BOND
     1    26    27    1
     2    27     1    1
     3     1     2    2
     4     2     3    1
     5     3     4    1
     6     3     5    2
     7     5     6    1
     8     6     7    2
     9     7     8    1
    10     8    13    1
    11    13    14   ar
    12    14    15   ar
    13    15    16   ar
    14    16    17    1
    15    16    18   ar
    16    18    19   ar
    17     8     9    2
    18     9    20    1
    19    20    21   ar
    20    21    22   ar
    21    22    23   ar
    22    23    24   ar
    23    24    25   ar
    24     9    10    1
    25    10     1    1
    26    10     6    1
    27    19    13   ar
    28    25    20   ar
    29     4    11    1
    30     4    12    1
@<TRIPOS>MOLECULE
*****
 27 30 0 0 0
SMALL
GASTEIGER

@<TRIPOS>ATOM
      1 C          62.5720   85.1883   11.2958 C.2     1  UNL1        0.1394
      2 C          62.7729   83.7026   11.2489 C.2     1  UNL1        0.1224
      3 C          63.5319   83.0134   12.3438 C.2     1  UNL1        0.3253
      4 N          63.7328   81.5276   12.2968 N.pl3   1  UNL1       -0.2459
      5 N          64.0902   83.8099   13.4856 N.2     1  UNL1        0.0019
      6 C          63.8894   85.2956   13.5325 C.2     1  UNL1        0.3660
      7 N          64.3202   86.3359   14.5237 N.2     1  UNL1       -0.0380
      8 C          63.8274   87.6680   14.0413 C.2     1  UNL1        0.1900
      9 C          63.0920   87.4510   12.7521 C.2     1  UNL1        0.0396
     10 C          63.1303   85.9848   12.4376 C.3     1  UNL1        0.1944
     11 H          63.3663   81.0048   11.5473 H       1  UNL1        0.2884
     12 H          64.2310   81.0752   13.0154 H       1  UNL1        0.2884
     13 C          64.0338   88.9857   14.7277 C.ar    1  UNL1        0.0429
     14 C          64.9979   89.9844   14.1595 C.ar    1  UNL1        0.0060
     15 C          65.2043   91.3021   14.8459 C.ar    1  UNL1        0.0298
     16 C          64.4465   91.6210   16.1004 C.ar    1  UNL1        0.1401
     17 F          64.6529   92.9387   16.7868 F       1  UNL1       -0.2042
     18 C          63.4824   90.6223   16.6686 C.ar    1  UNL1        0.0298
     19 C          63.2760   89.3046   15.9823 C.ar    1  UNL1        0.0060
     20 C          62.4338   88.5136   11.9229 C.ar    1  UNL1        0.0037
     21 C          60.9417   88.5295   11.7707 C.ar    1  UNL1        0.0205
     22 C          60.2836   89.5921   10.9415 C.ar    1  UNL1        0.0989
     23 N          61.1176   90.6390   10.2644 N.ar    1  UNL1       -0.2423
     24 C          62.6098   90.6232   10.4165 C.ar    1  UNL1        0.0989
     25 C          63.2679   89.5606   11.2457 C.ar    1  UNL1        0.0205
     26 C          62.4873   86.1783    8.8953 C.3     1  UNL1        0.2520
     27 O          61.8130   85.8775   10.2009 O.2     1  UNL1       -0.4745
@<TRIPOS>BOND
     1    26    27    1
     2    27     1    1
     3     1     2    2
     4     2     3    1
     5     3     4    1
     6     3     5    2
     7     5     6    1
     8     6     7    2
     9     7     8    1
    10     8    13    1
    11    13    14   ar
    12    14    15   ar
    13    15    16   ar
    14    16    17    1
    15    16    18   ar
    16    18    19   ar
    17     8     9    2
    18     9    20    1
    19    20    21   ar
    20    21    22   ar
    21    22    23   ar
    22    23    24   ar
    23    24    25   ar
    24     9    10    1
    25    10     1    1
    26    10     6    1
    27    19    13   ar
    28    25    20   ar
    29     4    11    1
    30     4    12    1
@<TRIPOS>MOLECULE
*****
 27 30 0 0 0
SMALL
GASTEIGER

@<TRIPOS>ATOM
      1 C          61.6419   87.9845   11.2991 C.2     1  UNL1        0.1394
      2 C          60.8352   88.0901   10.0389 C.2     1  UNL1        0.1224
      3 C          60.9099   89.3330    9.2025 C.2     1  UNL1        0.3253
      4 N          60.1031   89.4385    7.9423 N.pl3   1  UNL1       -0.2459
      5 N          61.7912   90.4703    9.6262 N.2     1  UNL1        0.0019
      6 C          62.5979   90.3647   10.8864 C.2     1  UNL1        0.3660
      7 N          63.5480   91.3153   11.5525 N.2     1  UNL1       -0.0380
      8 C          64.0605   90.6600   12.8007 C.2     1  UNL1        0.1900
      9 C          63.4271   89.3043   12.9059 C.2     1  UNL1        0.0396
     10 C          62.5233   89.1218   11.7228 C.3     1  UNL1        0.1944
     11 H          59.5246   88.6920    7.6642 H       1  UNL1        0.2884
     12 H          60.1521   90.2543    7.3933 H       1  UNL1        0.2884
     13 C          65.0351   91.2557   13.7729 C.ar    1  UNL1        0.0429
     14 C          64.5802   91.6431   15.1487 C.ar    1  UNL1        0.0060
     15 C          65.5548   92.2388   16.1209 C.ar    1  UNL1        0.0298
     16 C          66.9844   92.4471   15.7173 C.ar    1  UNL1        0.1401
     17 F          67.9590   93.0428   16.6896 F       1  UNL1       -0.2042
     18 C          67.4393   92.0596   14.3415 C.ar    1  UNL1        0.0298
     19 C          66.4647   91.4639   13.3693 C.ar    1  UNL1        0.0060
     20 C          63.6573   88.3063   14.0018 C.ar    1  UNL1        0.0037
     21 C          64.3049   86.9891   13.6929 C.ar    1  UNL1        0.0205
     22 C          64.5350   85.9911   14.7888 C.ar    1  UNL1        0.0989
     23 N          64.1175   86.3103   16.1937 N.ar    1  UNL1       -0.2423
     24 C          63.4699   87.6275   16.5027 C.ar    1  UNL1        0.0989
     25 C          63.2398   88.6255   15.4068 C.ar    1  UNL1        0.0205
     26 C          61.9616   85.4184   11.5495 C.3     1  UNL1        0.2520
     27 O          61.5672   86.7416   12.1355 O.2     1  UNL1       -0.4745
@<TRIPOS>BOND
     1    26    27    1
     2    27     1    1
     3     1     2    2
     4     2     3    1
     5     3     4    1
     6     3     5    2
     7     5     6    1
     8     6     7    2
     9     7     8    1
    10     8    13    1
    11    13    14   ar
    12    14    15   ar
    13    15    16   ar
    14    16    17    1
    15    16    18   ar
    16    18    19   ar
    17     8     9    2
    18     9    20    1
    19    20    21   ar
    20    21    22   ar
    21    22    23   ar
    22    23    24   ar
    23    24    25   ar
    24     9    10    1
    25    10     1    1
    26    10     6    1
    27    19    13   ar
    28    25    20   ar
    29     4    11    1
    30     4    12    1
