@<TRIPOS>MOLECULE
*****
 22 24 0 0 0
SMALL
GASTEIGER

@<TRIPOS>ATOM
      1 C          64.0681   90.7053   13.1632 C.ar    1  UNL1        0.1444
      2 C          63.4012   90.6793   11.8199 C.ar    1  UNL1        0.0693
      3 C          63.8963   91.5701   10.7194 C.ar    1  UNL1        0.0090
      4 C          65.0584   92.4871   10.9621 C.ar    1  UNL1        0.0378
      5 C          65.7253   92.5131   12.3054 C.ar    1  UNL1        0.1484
      6 O          66.8826   93.3061   12.8362 O.2     1  UNL1       -0.4503
      7 C          67.1027   92.9053   14.2648 C.ar    1  UNL1        0.1797
      8 C          66.0815   91.8646   14.6170 C.ar    1  UNL1        0.0467
      9 C          65.2302   91.6221   13.4060 C.ar    1  UNL1        0.0717
     10 C          64.2863   88.5302   14.5673 C.3     1  UNL1        0.2525
     11 O          63.5730   89.8143   14.2637 O.3     1  UNL1       -0.4712
     12 C          62.2391   89.7623   11.5771 C.2     1  UNL1        0.1837
     13 O          61.1214   89.6879   12.5745 O.2     1  UNL1       -0.2908
     14 C          62.1949   88.9199   10.3368 C.3     1  UNL1        0.1382
     15 C          62.1917   87.4239   10.4461 C.2     1  UNL1        0.1808
     16 O          62.4733   86.7676   11.7652 O.2     1  UNL1       -0.2909
     17 C          61.9068   86.5841    9.2362 C.ar    1  UNL1        0.0352
     18 C          60.5408   86.6002    8.6168 C.ar    1  UNL1        0.0029
     19 C          60.2559   85.7605    7.4070 C.ar    1  UNL1        0.0001
     20 C          61.3371   84.9046    6.8166 C.ar    1  UNL1        0.0000
     21 C          62.7032   84.8885    7.4360 C.ar    1  UNL1        0.0001
     22 C          62.9881   85.7283    8.6459 C.ar    1  UNL1        0.0029
@<TRIPOS>BOND
     1    10    11    1
     2    11     1    1
     3     1     2   ar
     4     2    12    1
     5    12    13    2
     6    12    14    1
     7    14    15    1
     8    15    16    2
     9    15    17    1
    10    17    18   ar
    11    18    19   ar
    12    19    20   ar
    13    20    21   ar
    14    21    22   ar
    15     2     3   ar
    16     3     4   ar
    17     4     5   ar
    18     5     6   ar
    19     6     7   ar
    20     7     8   ar
    21     8     9   ar
    22     9     1   ar
    23    22    17   ar
    24     9     5   ar
@<TRIPOS>MOLECULE
*****
 22 24 0 0 0
SMALL
GASTEIGER

@<TRIPOS>ATOM
      1 C          63.9548   90.5868   13.0594 C.ar    1  UNL1        0.1444
      2 C          63.3083   90.6139   11.7062 C.ar    1  UNL1        0.0693
      3 C          63.8275   91.5384   10.6453 C.ar    1  UNL1        0.0090
      4 C          64.9935   92.4358   10.9376 C.ar    1  UNL1        0.0378
      5 C          65.6400   92.4086   12.2908 C.ar    1  UNL1        0.1484
      6 O          66.7957   93.1722   12.8664 O.2     1  UNL1       -0.4503
      7 C          66.9906   92.7195   14.2832 C.ar    1  UNL1        0.1797
      8 C          65.9554   91.6763   14.5831 C.ar    1  UNL1        0.0467
      9 C          65.1207   91.4841   13.3517 C.ar    1  UNL1        0.0717
     10 C          64.2468   88.4731   14.5417 C.3     1  UNL1        0.2525
     11 O          63.4354   89.6623   14.1203 O.3     1  UNL1       -0.4712
     12 C          62.1423   89.7165   11.4140 C.2     1  UNL1        0.1837
     13 O          61.0157   89.6062   12.3979 O.2     1  UNL1       -0.2908
     14 C          62.1032   88.9295   10.1376 C.3     1  UNL1        0.1382
     15 C          61.3442   87.6371   10.0764 C.2     1  UNL1        0.1808
     16 O          59.8455   87.6496   10.0160 O.2     1  UNL1       -0.2909
     17 C          62.0840   86.3321   10.0757 C.ar    1  UNL1        0.0352
     18 C          62.6661   85.8008    8.7995 C.ar    1  UNL1        0.0029
     19 C          63.4059   84.4959    8.7987 C.ar    1  UNL1        0.0001
     20 C          63.5635   83.7224   10.0741 C.ar    1  UNL1        0.0000
     21 C          62.9814   84.2537   11.3504 C.ar    1  UNL1        0.0001
     22 C          62.2416   85.5587   11.3512 C.ar    1  UNL1        0.0029
@<TRIPOS>BOND
     1    10    11    1
     2    11     1    1
     3     1     2   ar
     4     2    12    1
     5    12    13    2
     6    12    14    1
     7    14    15    1
     8    15    16    2
     9    15    17    1
    10    17    18   ar
    11    18    19   ar
    12    19    20   ar
    13    20    21   ar
    14    21    22   ar
    15     2     3   ar
    16     3     4   ar
    17     4     5   ar
    18     5     6   ar
    19     6     7   ar
    20     7     8   ar
    21     8     9   ar
    22     9     1   ar
    23    22    17   ar
    24     9     5   ar
@<TRIPOS>MOLECULE
*****
 22 24 0 0 0
SMALL
GASTEIGER

@<TRIPOS>ATOM
      1 C          62.3028   83.7791   13.3783 C.ar    1  UNL1        0.1444
      2 C          62.7947   84.6191   12.2371 C.ar    1  UNL1        0.0693
      3 C          63.3383   83.9629   11.0027 C.ar    1  UNL1        0.0090
      4 C          63.3901   82.4666   10.9095 C.ar    1  UNL1        0.0378
      5 C          62.8982   81.6267   12.0507 C.ar    1  UNL1        0.1484
      6 O          62.8245   80.1411   12.2447 O.2     1  UNL1       -0.4503
      7 C          62.2353   79.8792   13.5990 C.ar    1  UNL1        0.1797
      8 C          61.9448   81.2029   14.2421 C.ar    1  UNL1        0.0467
      9 C          62.3545   82.2829   13.2851 C.ar    1  UNL1        0.0717
     10 C          62.6065   84.5304   15.8468 C.3     1  UNL1        0.2525
     11 O          61.7591   84.4353   14.6128 O.3     1  UNL1       -0.4712
     12 C          62.7429   86.1153   12.3304 C.2     1  UNL1        0.1837
     13 O          63.7237   86.8471   13.1977 O.2     1  UNL1       -0.2908
     14 C          61.7103   86.8797   11.5562 C.3     1  UNL1        0.1382
     15 C          62.0289   87.3902   10.1822 C.2     1  UNL1        0.1808
     16 O          62.5557   88.7833   10.0032 O.2     1  UNL1       -0.2909
     17 C          61.8207   86.5078    8.9872 C.ar    1  UNL1        0.0352
     18 C          60.4614   86.3993    8.3626 C.ar    1  UNL1        0.0029
     19 C          60.2532   85.5169    7.1677 C.ar    1  UNL1        0.0001
     20 C          61.4045   84.7429    6.5972 C.ar    1  UNL1        0.0000
     21 C          62.7640   84.8514    7.2218 C.ar    1  UNL1        0.0001
     22 C          62.9722   85.7339    8.4168 C.ar    1  UNL1        0.0029
@<TRIPOS>BOND
     1    10    11    1
     2    11     1    1
     3     1     2   ar
     4     2    12    1
     5    12    13    2
     6    12    14    1
     7    14    15    1
     8    15    16    2
     9    15    17    1
    10    17    18   ar
    11    18    19   ar
    12    19    20   ar
    13    20    21   ar
    14    21    22   ar
    15     2     3   ar
    16     3     4   ar
    17     4     5   ar
    18     5     6   ar
    19     6     7   ar
    20     7     8   ar
    21     8     9   ar
    22     9     1   ar
    23    22    17   ar
    24     9     5   ar
@<TRIPOS>MOLECULE
*****
 22 24 0 0 0
SMALL
GASTEIGER

@<TRIPOS>ATOM
      1 C          62.4176   83.7475   13.2657 C.ar    1  UNL1        0.1444
      2 C          62.9555   84.5468   12.1160 C.ar    1  UNL1        0.0693
      3 C          63.4756   83.8480   10.8950 C.ar    1  UNL1        0.0090
      4 C          63.4579   82.3498   10.8235 C.ar    1  UNL1        0.0378
      5 C          62.9201   81.5505   11.9731 C.ar    1  UNL1        0.1484
      6 O          62.7757   80.0729   12.1878 O.2     1  UNL1       -0.4503
      7 C          62.1664   79.8586   13.5416 C.ar    1  UNL1        0.1797
      8 C          61.9341   81.2037   14.1636 C.ar    1  UNL1        0.0467
      9 C          62.3999   82.2493   13.1942 C.ar    1  UNL1        0.0717
     10 C          62.6916   84.4241   15.7591 C.3     1  UNL1        0.2525
     11 O          61.8975   84.4464   14.4867 O.3     1  UNL1       -0.4712
     12 C          62.9732   86.0451   12.1875 C.2     1  UNL1        0.1837
     13 O          63.6371   86.7330   13.3432 O.2     1  UNL1       -0.2908
     14 C          62.3269   86.8553   11.1031 C.3     1  UNL1        0.1382
     15 C          61.7204   88.1892   11.4238 C.2     1  UNL1        0.1808
     16 O          60.2599   88.2900   11.7506 O.2     1  UNL1       -0.2909
     17 C          62.5745   89.4224   11.4178 C.ar    1  UNL1        0.0352
     18 C          62.6887   90.2495   10.1717 C.ar    1  UNL1        0.0029
     19 C          63.5426   91.4826   10.1657 C.ar    1  UNL1        0.0001
     20 C          64.2825   91.8886   11.4057 C.ar    1  UNL1        0.0000
     21 C          64.1683   91.0615   12.6519 C.ar    1  UNL1        0.0001
     22 C          63.3143   89.8283   12.6579 C.ar    1  UNL1        0.0029
@<TRIPOS>BOND
     1    10    11    1
     2    11     1    1
     3     1     2   ar
     4     2    12    1
     5    12    13    2
     6    12    14    1
     7    14    15    1
     8    15    16    2
     9    15    17    1
    10    17    18   ar
    11    18    19   ar
    12    19    20   ar
    13    20    21   ar
    14    21    22   ar
    15     2     3   ar
    16     3     4   ar
    17     4     5   ar
    18     5     6   ar
    19     6     7   ar
    20     7     8   ar
    21     8     9   ar
    22     9     1   ar
    23    22    17   ar
    24     9     5   ar
@<TRIPOS>MOLECULE
*****
 22 24 0 0 0
SMALL
GASTEIGER

@<TRIPOS>ATOM
      1 C          64.9403   91.6435   12.5432 C.ar    1  UNL1        0.1444
      2 C          63.7768   90.7271   12.7810 C.ar    1  UNL1        0.0693
      3 C          63.3993   90.3419   14.1806 C.ar    1  UNL1        0.0090
      4 C          64.1853   90.8731   15.3426 C.ar    1  UNL1        0.0378
      5 C          65.3487   91.7895   15.1049 C.ar    1  UNL1        0.1484
      6 O          66.3025   92.4653   16.0449 O.2     1  UNL1       -0.4503
      7 C          67.2694   93.2682   15.2262 C.ar    1  UNL1        0.1797
      8 C          66.9133   93.0886   13.7802 C.ar    1  UNL1        0.0467
      9 C          65.7262   92.1747   13.7052 C.ar    1  UNL1        0.0717
     10 C          65.3768   93.4761   10.7541 C.3     1  UNL1        0.2525
     11 O          65.3178   92.0287   11.1436 O.3     1  UNL1       -0.4712
     12 C          62.9909   90.1959   11.6190 C.2     1  UNL1        0.1837
     13 O          62.4908   91.1336   10.5604 O.2     1  UNL1       -0.2908
     14 C          62.7051   88.7271   11.5156 C.3     1  UNL1        0.1382
     15 C          61.3496   88.2556   11.0794 C.2     1  UNL1        0.1808
     16 O          60.1294   88.6642   11.8504 O.2     1  UNL1       -0.2909
     17 C          61.2141   87.3756    9.8722 C.ar    1  UNL1        0.0352
     18 C          62.3628   86.5133    9.4400 C.ar    1  UNL1        0.0029
     19 C          62.2274   85.6333    8.2329 C.ar    1  UNL1        0.0001
     20 C          60.9433   85.6157    7.4578 C.ar    1  UNL1        0.0000
     21 C          59.7945   86.4780    7.8900 C.ar    1  UNL1        0.0001
     22 C          59.9299   87.3581    9.0972 C.ar    1  UNL1        0.0029
@<TRIPOS>BOND
     1    10    11    1
     2    11     1    1
     3     1     2   ar
     4     2    12    1
     5    12    13    2
     6    12    14    1
     7    14    15    1
     8    15    16    2
     9    15    17    1
    10    17    18   ar
    11    18    19   ar
    12    19    20   ar
    13    20    21   ar
    14    21    22   ar
    15     2     3   ar
    16     3     4   ar
    17     4     5   ar
    18     5     6   ar
    19     6     7   ar
    20     7     8   ar
    21     8     9   ar
    22     9     1   ar
    23    22    17   ar
    24     9     5   ar
@<TRIPOS>MOLECULE
*****
 22 24 0 0 0
SMALL
GASTEIGER

@<TRIPOS>ATOM
      1 C          64.4627   91.0473   12.6437 C.ar    1  UNL1        0.1444
      2 C          64.6518   90.6380   14.0743 C.ar    1  UNL1        0.0693
      3 C          65.5364   91.4475   14.9754 C.ar    1  UNL1        0.0090
      4 C          66.2320   92.6665   14.4460 C.ar    1  UNL1        0.0378
      5 C          66.0430   93.0758   13.0154 C.ar    1  UNL1        0.1484
      6 O          66.5946   94.2200   12.2176 O.2     1  UNL1       -0.4503
      7 C          66.0508   94.1177   10.8234 C.ar    1  UNL1        0.1797
      8 C          65.1632   92.9102   10.7595 C.ar    1  UNL1        0.0467
      9 C          65.1584   92.2662   12.1142 C.ar    1  UNL1        0.0717
     10 C          62.1940   90.7183   11.4213 C.3     1  UNL1        0.2525
     11 O          63.5781   90.2378   11.7426 O.3     1  UNL1       -0.4712
     12 C          63.9561   89.4190   14.6038 C.2     1  UNL1        0.1837
     13 O          62.5788   89.5351   15.1863 O.2     1  UNL1       -0.2908
     14 C          64.6379   88.0840   14.5507 C.3     1  UNL1        0.1382
     15 C          63.9211   86.8563   15.0291 C.2     1  UNL1        0.1808
     16 O          63.3262   86.8237   16.4057 O.2     1  UNL1       -0.2909
     17 C          63.7993   85.6610   14.1309 C.ar    1  UNL1        0.0352
     18 C          63.1255   85.7908   12.7971 C.ar    1  UNL1        0.0029
     19 C          63.0036   84.5956   11.8989 C.ar    1  UNL1        0.0001
     20 C          63.5556   83.2707   12.3346 C.ar    1  UNL1        0.0000
     21 C          64.2294   83.1409   13.6685 C.ar    1  UNL1        0.0001
     22 C          64.3512   84.3361   14.5667 C.ar    1  UNL1        0.0029
@<TRIPOS>BOND
     1    10    11    1
     2    11     1    1
     3     1     2   ar
     4     2    12    1
     5    12    13    2
     6    12    14    1
     7    14    15    1
     8    15    16    2
     9    15    17    1
    10    17    18   ar
    11    18    19   ar
    12    19    20   ar
    13    20    21   ar
    14    21    22   ar
    15     2     3   ar
    16     3     4   ar
    17     4     5   ar
    18     5     6   ar
    19     6     7   ar
    20     7     8   ar
    21     8     9   ar
    22     9     1   ar
    23    22    17   ar
    24     9     5   ar
@<TRIPOS>MOLECULE
*****
 22 24 0 0 0
SMALL
GASTEIGER

@<TRIPOS>ATOM
      1 C          62.8372   85.2814   11.7884 C.ar    1  UNL1        0.1444
      2 C          62.4087   86.1262   10.6255 C.ar    1  UNL1        0.0693
      3 C          62.6316   85.6413    9.2237 C.ar    1  UNL1        0.0090
      4 C          63.2830   84.3113    8.9848 C.ar    1  UNL1        0.0378
      5 C          63.7115   83.4664   10.1478 C.ar    1  UNL1        0.1484
      6 O          64.3733   82.1224   10.2221 O.2     1  UNL1       -0.4503
      7 C          64.5594   81.7767   11.6698 C.ar    1  UNL1        0.1797
      8 C          64.0126   82.9072   12.4903 C.ar    1  UNL1        0.0467
      9 C          63.4886   83.9515   11.5496 C.ar    1  UNL1        0.0717
     10 C          63.7819   85.9582   14.1121 C.3     1  UNL1        0.2525
     11 O          62.6143   85.7664   13.1903 O.3     1  UNL1       -0.4712
     12 C          61.7574   87.4562   10.8643 C.2     1  UNL1        0.1837
     13 O          60.4155   87.5252   11.5309 O.2     1  UNL1       -0.2908
     14 C          62.4480   88.7171   10.4366 C.3     1  UNL1        0.1382
     15 C          62.3046   89.9656   11.2555 C.2     1  UNL1        0.1808
     16 O          61.0738   90.8126   11.1226 O.2     1  UNL1       -0.2909
     17 C          63.3922   90.3673   12.2075 C.ar    1  UNL1        0.0352
     18 C          64.2163   91.5899   11.9320 C.ar    1  UNL1        0.0029
     19 C          65.3038   91.9915   12.8838 C.ar    1  UNL1        0.0001
     20 C          65.5672   91.1704   14.1112 C.ar    1  UNL1        0.0000
     21 C          64.7431   89.9477   14.3867 C.ar    1  UNL1        0.0001
     22 C          63.6555   89.5461   13.4348 C.ar    1  UNL1        0.0029
@<TRIPOS>BOND
     1    10    11    1
     2    11     1    1
     3     1     2   ar
     4     2    12    1
     5    12    13    2
     6    12    14    1
     7    14    15    1
     8    15    16    2
     9    15    17    1
    10    17    18   ar
    11    18    19   ar
    12    19    20   ar
    13    20    21   ar
    14    21    22   ar
    15     2     3   ar
    16     3     4   ar
    17     4     5   ar
    18     5     6   ar
    19     6     7   ar
    20     7     8   ar
    21     8     9   ar
    22     9     1   ar
    23    22    17   ar
    24     9     5   ar
@<TRIPOS>MOLECULE
*****
 22 24 0 0 0
SMALL
GASTEIGER

@<TRIPOS>ATOM
      1 C          62.8961   85.3446    9.6835 C.ar    1  UNL1        0.1444
      2 C          62.1520   86.4194   10.4191 C.ar    1  UNL1        0.0693
      3 C          61.8335   86.2493   11.8749 C.ar    1  UNL1        0.0090
      4 C          62.2591   85.0043   12.5953 C.ar    1  UNL1        0.0378
      5 C          63.0032   83.9295   11.8598 C.ar    1  UNL1        0.1484
      6 O          63.5471   82.6032   12.3014 O.2     1  UNL1       -0.4503
      7 C          64.2017   81.9536   11.1184 C.ar    1  UNL1        0.1797
      8 C          64.0624   82.8784    9.9457 C.ar    1  UNL1        0.0467
      9 C          63.3217   84.0997   10.4039 C.ar    1  UNL1        0.0717
     10 C          62.3240   84.9010    7.1883 C.3     1  UNL1        0.2525
     11 O          63.2146   85.5148    8.2276 O.3     1  UNL1       -0.4712
     12 C          61.7263   87.6644    9.6986 C.2     1  UNL1        0.1837
     13 O          60.5863   87.6150    8.7252 O.2     1  UNL1       -0.2908
     14 C          62.4409   88.9587    9.9517 C.3     1  UNL1        0.1382
     15 C          62.1071   89.7749   11.1651 C.2     1  UNL1        0.1808
     16 O          60.6889   90.1901   11.4228 O.2     1  UNL1       -0.2909
     17 C          63.1914   90.1760   12.1209 C.ar    1  UNL1        0.0352
     18 C          63.5097   89.3072   13.3015 C.ar    1  UNL1        0.0029
     19 C          64.5940   89.7082   14.2572 C.ar    1  UNL1        0.0001
     20 C          65.3601   90.9780   14.0323 C.ar    1  UNL1        0.0000
     21 C          65.0419   91.8469   12.8517 C.ar    1  UNL1        0.0001
     22 C          63.9575   91.4458   11.8959 C.ar    1  UNL1        0.0029
@<TRIPOS>BOND
     1    10    11    1
     2    11     1    1
     3     1     2   ar
     4     2    12    1
     5    12    13    2
     6    12    14    1
     7    14    15    1
     8    15    16    2
     9    15    17    1
    10    17    18   ar
    11    18    19   ar
    12    19    20   ar
    13    20    21   ar
    14    21    22   ar
    15     2     3   ar
    16     3     4   ar
    17     4     5   ar
    18     5     6   ar
    19     6     7   ar
    20     7     8   ar
    21     8     9   ar
    22     9     1   ar
    23    22    17   ar
    24     9     5   ar
@<TRIPOS>MOLECULE
*****
 22 24 0 0 0
SMALL
GASTEIGER

@<TRIPOS>ATOM
      1 C          61.7860   88.0145   11.0585 C.ar    1  UNL1        0.1444
      2 C          62.4475   86.7082   11.3841 C.ar    1  UNL1        0.0693
      3 C          62.3060   85.5427   10.4505 C.ar    1  UNL1        0.0090
      4 C          61.5031   85.6835    9.1913 C.ar    1  UNL1        0.0378
      5 C          60.8416   86.9898    8.8657 C.ar    1  UNL1        0.1484
      6 O          59.9938   87.4242    7.7071 O.2     1  UNL1       -0.4503
      7 C          59.6113   88.8582    7.9246 C.ar    1  UNL1        0.1797
      8 C          60.2227   89.3100    9.2177 C.ar    1  UNL1        0.0467
      9 C          60.9831   88.1553    9.7994 C.ar    1  UNL1        0.0717
     10 C          62.6887   90.3983   11.5608 C.3     1  UNL1        0.2525
     11 O          61.9274   89.1800   11.9921 O.3     1  UNL1       -0.4712
     12 C          63.2504   86.5674   12.6433 C.2     1  UNL1        0.1837
     13 O          63.6115   87.7842   13.4425 O.2     1  UNL1       -0.2908
     14 C          63.6921   85.2097   13.1032 C.3     1  UNL1        0.1382
     15 C          62.7456   84.3320   13.8671 C.2     1  UNL1        0.1808
     16 O          61.9459   84.9002   15.0019 O.2     1  UNL1       -0.2909
     17 C          62.5987   82.8859   13.4962 C.ar    1  UNL1        0.0352
     18 C          63.2762   82.3540   12.2683 C.ar    1  UNL1        0.0029
     19 C          63.1294   80.9080   11.8975 C.ar    1  UNL1        0.0001
     20 C          62.3049   79.9939   12.7546 C.ar    1  UNL1        0.0000
     21 C          61.6272   80.5258   13.9826 C.ar    1  UNL1        0.0001
     22 C          61.7741   81.9719   14.3534 C.ar    1  UNL1        0.0029
@<TRIPOS>BOND
     1    10    11    1
     2    11     1    1
     3     1     2   ar
     4     2    12    1
     5    12    13    2
     6    12    14    1
     7    14    15    1
     8    15    16    2
     9    15    17    1
    10    17    18   ar
    11    18    19   ar
    12    19    20   ar
    13    20    21   ar
    14    21    22   ar
    15     2     3   ar
    16     3     4   ar
    17     4     5   ar
    18     5     6   ar
    19     6     7   ar
    20     7     8   ar
    21     8     9   ar
    22     9     1   ar
    23    22    17   ar
    24     9     5   ar
