@<TRIPOS>MOLECULE
*****
 32 35 0 0 0
SMALL
GASTEIGER

@<TRIPOS>ATOM
      1 C          65.4293   93.2907   11.2376 C.ar    1  UNL1        0.1219
      2 C          64.4061   92.5127   10.4647 C.ar    1  UNL1        0.0240
      3 C          63.8334   91.2504   11.0380 C.ar    1  UNL1        0.0235
      4 C          64.2840   90.7663   12.3843 C.ar    1  UNL1        0.1166
      5 N          65.3072   91.5444   13.1573 N.ar    1  UNL1       -0.2887
      6 C          65.8799   92.8066   12.5840 C.ar    1  UNL1        0.2772
      7 O          66.9032   93.5847   13.3569 O.2     1  UNL1       -0.2654
      8 C          65.7578   91.0602   14.5036 C.3     1  UNL1        0.1307
      9 C          65.1851   89.7980   15.0770 C.3     1  UNL1        0.1184
     10 N          64.1618   89.0198   14.3040 N.am    1  UNL1       -0.2691
     11 C          63.7113   89.5040   12.9577 C.2     1  UNL1        0.2652
     12 O          62.6880   88.7259   12.1847 O.2     1  UNL1       -0.2683
     13 C          67.6819   96.7326    7.9270 C.3     1  UNL1        0.0538
     14 C          67.0375   96.1351    9.1425 C.ar    1  UNL1        0.0786
     15 C          66.5880   94.7119    9.2926 C.ar    1  UNL1        0.0963
     16 N          66.0021   94.5530   10.6643 N.ar    1  UNL1       -0.2825
     17 C          66.0894   95.8780   11.3619 C.ar    1  UNL1        0.1826
     18 N          66.7293   96.8558   10.4215 N.ar    1  UNL1       -0.2280
     19 C          63.5892   87.7576   14.8773 C.3     1  UNL1        0.1410
     20 C          64.0958   86.4248   14.4115 C.3     1  UNL1        0.2268
     21 O          63.4976   85.7776   13.1976 O.3     1  UNL1       -0.4737
     22 C          63.0419   84.3497   13.2568 C.ar    1  UNL1        0.1426
     23 C          62.6987   83.7261   14.5770 C.ar    1  UNL1        0.0392
     24 C          62.2429   82.2982   14.6362 C.ar    1  UNL1        0.0327
     25 C          62.1303   81.4940   13.3750 C.ar    1  UNL1        0.1403
     26 F          61.6745   80.0662   13.4342 F       1  UNL1       -0.2042
     27 C          62.4735   82.1177   12.0546 C.ar    1  UNL1        0.0366
     28 C          62.9292   83.5456   11.9955 C.ar    1  UNL1        0.1075
     29 C          63.2724   84.1692   10.6752 C.3     1  UNL1        0.4214
     30 F          63.6156   84.7929    9.3548 F       1  UNL1       -0.1657
     31 F          64.5707   83.4184   10.6579 F       1  UNL1       -0.1657
     32 F          61.9740   84.9201   10.6925 F       1  UNL1       -0.1657
@<TRIPOS>BOND
     1    13    14    1
     2    14    15   ar
     3    15    16   ar
     4    16     1    1
     5     1     2   ar
     6     2     3   ar
     7     3     4   ar
     8     4     5   ar
     9     5     6   ar
    10     6     7    2
    11     5     8    1
    12     8     9    1
    13     9    10    1
    14    10    19    1
    15    19    20    1
    16    20    21    1
    17    21    22    1
    18    22    23   ar
    19    23    24   ar
    20    24    25   ar
    21    25    26    1
    22    25    27   ar
    23    27    28   ar
    24    28    29    1
    25    29    30    1
    26    29    31    1
    27    29    32    1
    28    10    11   am
    29    11    12    2
    30    16    17   ar
    31    17    18   ar
    32    18    14   ar
    33     6     1   ar
    34    28    22   ar
    35    11     4    1
@<TRIPOS>MOLECULE
*****
 32 35 0 0 0
SMALL
GASTEIGER

@<TRIPOS>ATOM
      1 C          62.9231   84.9368   12.3776 C.ar    1  UNL1        0.1219
      2 C          62.3119   85.7203   11.2540 C.ar    1  UNL1        0.0240
      3 C          62.4273   87.2157   11.2328 C.ar    1  UNL1        0.0235
      4 C          63.1538   87.9276   12.3353 C.ar    1  UNL1        0.1166
      5 N          63.7650   87.1441   13.4589 N.ar    1  UNL1       -0.2887
      6 C          63.6496   85.6487   13.4800 C.ar    1  UNL1        0.2772
      7 O          64.2608   84.8651   14.6037 O.2     1  UNL1       -0.2654
      8 C          64.4915   87.8559   14.5613 C.3     1  UNL1        0.1307
      9 C          64.6068   89.3513   14.5402 C.3     1  UNL1        0.1184
     10 N          63.9956   90.1349   13.4165 N.am    1  UNL1       -0.2691
     11 C          63.2691   89.4230   12.3141 C.2     1  UNL1        0.2652
     12 O          62.6579   90.2065   11.1905 O.2     1  UNL1       -0.2683
     13 C          61.8341   80.0054   13.9192 C.3     1  UNL1        0.0538
     14 C          62.3072   81.1746   13.1074 C.ar    1  UNL1        0.0786
     15 C          62.2172   82.6182   13.5050 C.ar    1  UNL1        0.0963
     16 N          62.8078   83.4413   12.3988 N.ar    1  UNL1       -0.2825
     17 C          63.2628   82.5065   11.3175 C.ar    1  UNL1        0.1826
     18 N          62.9534   81.1057   11.7554 N.ar    1  UNL1       -0.2280
     19 C          64.1110   91.6303   13.3954 C.3     1  UNL1        0.1410
     20 C          65.4334   92.2844   13.6660 C.3     1  UNL1        0.2268
     21 O          65.8887   93.4347   12.8176 O.3     1  UNL1       -0.4737
     22 C          66.7190   93.1819   11.5943 C.ar    1  UNL1        0.1426
     23 C          67.5626   91.9450   11.5029 C.ar    1  UNL1        0.0392
     24 C          68.3929   91.6922   10.2795 C.ar    1  UNL1        0.0327
     25 C          68.3796   92.6762    9.1475 C.ar    1  UNL1        0.1403
     26 F          69.2099   92.4234    7.9241 F       1  UNL1       -0.2042
     27 C          67.5360   93.9132    9.2389 C.ar    1  UNL1        0.0366
     28 C          66.7057   94.1660   10.4622 C.ar    1  UNL1        0.1075
     29 C          65.8621   95.4029   10.5536 C.3     1  UNL1        0.4214
     30 F          65.0184   96.6398   10.6450 F       1  UNL1       -0.1657
     31 F          64.6403   94.5932   10.2348 F       1  UNL1       -0.1657
     32 F          67.0838   96.2126   10.8725 F       1  UNL1       -0.1657
@<TRIPOS>BOND
     1    13    14    1
     2    14    15   ar
     3    15    16   ar
     4    16     1    1
     5     1     2   ar
     6     2     3   ar
     7     3     4   ar
     8     4     5   ar
     9     5     6   ar
    10     6     7    2
    11     5     8    1
    12     8     9    1
    13     9    10    1
    14    10    19    1
    15    19    20    1
    16    20    21    1
    17    21    22    1
    18    22    23   ar
    19    23    24   ar
    20    24    25   ar
    21    25    26    1
    22    25    27   ar
    23    27    28   ar
    24    28    29    1
    25    29    30    1
    26    29    31    1
    27    29    32    1
    28    10    11   am
    29    11    12    2
    30    16    17   ar
    31    17    18   ar
    32    18    14   ar
    33     6     1   ar
    34    28    22   ar
    35    11     4    1
@<TRIPOS>MOLECULE
*****
 32 35 0 0 0
SMALL
GASTEIGER

@<TRIPOS>ATOM
      1 C          65.7535   91.7446   13.6929 C.ar    1  UNL1        0.1219
      2 C          64.7993   91.0414   14.6120 C.ar    1  UNL1        0.0240
      3 C          63.5014   90.5091   14.0811 C.ar    1  UNL1        0.0235
      4 C          63.1577   90.6800   12.6310 C.ar    1  UNL1        0.1166
      5 N          64.1119   91.3832   11.7119 N.ar    1  UNL1       -0.2887
      6 C          65.4098   91.9155   12.2428 C.ar    1  UNL1        0.2772
      7 O          66.3642   92.6188   11.3237 O.2     1  UNL1       -0.2654
      8 C          63.7682   91.5541   10.2618 C.3     1  UNL1        0.1307
      9 C          62.4702   91.0218    9.7309 C.3     1  UNL1        0.1184
     10 N          61.5159   90.3185   10.6501 N.am    1  UNL1       -0.2691
     11 C          61.8596   90.1476   12.1001 C.2     1  UNL1        0.2652
     12 O          60.9054   89.4444   13.0192 O.2     1  UNL1       -0.2683
     13 C          69.2816   94.5641   16.4287 C.3     1  UNL1        0.0538
     14 C          68.6732   93.5730   15.4813 C.ar    1  UNL1        0.0786
     15 C          67.2066   93.3613   15.2487 C.ar    1  UNL1        0.0963
     16 N          67.0516   92.2770   14.2238 N.ar    1  UNL1       -0.2825
     17 C          68.4224   91.8186   13.8230 C.ar    1  UNL1        0.1826
     18 N          69.4246   92.6195   14.6002 N.ar    1  UNL1       -0.2280
     19 C          60.2180   89.7862   10.1191 C.3     1  UNL1        0.1410
     20 C          60.0851   88.3299    9.7851 C.3     1  UNL1        0.2268
     21 O          61.2460   87.5874    9.1925 O.3     1  UNL1       -0.4737
     22 C          61.8896   86.4685    9.9567 C.ar    1  UNL1        0.1426
     23 C          61.9608   86.5266   11.4539 C.ar    1  UNL1        0.0392
     24 C          62.6044   85.4078   12.2181 C.ar    1  UNL1        0.0327
     25 C          63.1768   84.2309   11.4851 C.ar    1  UNL1        0.1403
     26 F          63.8204   83.1121   12.2493 F       1  UNL1       -0.2042
     27 C          63.1056   84.1728    9.9879 C.ar    1  UNL1        0.0366
     28 C          62.4620   85.2916    9.2237 C.ar    1  UNL1        0.1075
     29 C          62.3908   85.2335    7.7265 C.3     1  UNL1        0.4214
     30 F          62.3196   85.1755    6.2293 F       1  UNL1       -0.1657
     31 F          63.8484   85.5776    7.6438 F       1  UNL1       -0.1657
     32 F          60.9332   84.8895    7.8092 F       1  UNL1       -0.1657
@<TRIPOS>BOND
     1    13    14    1
     2    14    15   ar
     3    15    16   ar
     4    16     1    1
     5     1     2   ar
     6     2     3   ar
     7     3     4   ar
     8     4     5   ar
     9     5     6   ar
    10     6     7    2
    11     5     8    1
    12     8     9    1
    13     9    10    1
    14    10    19    1
    15    19    20    1
    16    20    21    1
    17    21    22    1
    18    22    23   ar
    19    23    24   ar
    20    24    25   ar
    21    25    26    1
    22    25    27   ar
    23    27    28   ar
    24    28    29    1
    25    29    30    1
    26    29    31    1
    27    29    32    1
    28    10    11   am
    29    11    12    2
    30    16    17   ar
    31    17    18   ar
    32    18    14   ar
    33     6     1   ar
    34    28    22   ar
    35    11     4    1
@<TRIPOS>MOLECULE
*****
 32 35 0 0 0
SMALL
GASTEIGER

@<TRIPOS>ATOM
      1 C          62.0870   86.7315   10.1118 C.ar    1  UNL1        0.1219
      2 C          62.6309   85.8344   11.1838 C.ar    1  UNL1        0.0240
      3 C          63.2015   86.4258   12.4386 C.ar    1  UNL1        0.0235
      4 C          63.2282   87.9143   12.6214 C.ar    1  UNL1        0.1166
      5 N          62.6844   88.8115   11.5494 N.ar    1  UNL1       -0.2887
      6 C          62.1137   88.2201   10.2946 C.ar    1  UNL1        0.2772
      7 O          61.5698   89.1173    9.2225 O.2     1  UNL1       -0.2654
      8 C          62.7111   90.3001   11.7322 C.3     1  UNL1        0.1307
      9 C          63.2817   90.8915   12.9870 C.3     1  UNL1        0.1184
     10 N          63.8256   89.9943   14.0591 N.am    1  UNL1       -0.2691
     11 C          63.7989   88.5057   13.8763 C.2     1  UNL1        0.2652
     12 O          64.3428   87.6086   14.9483 O.2     1  UNL1       -0.2683
     13 C          61.6372   84.1243    5.5422 C.3     1  UNL1        0.0538
     14 C          61.3097   84.9417    6.7565 C.ar    1  UNL1        0.0786
     15 C          62.2672   85.3259    7.8452 C.ar    1  UNL1        0.0963
     16 N          61.5164   86.1401    8.8569 N.ar    1  UNL1       -0.2825
     17 C          60.0948   86.2591    8.3933 C.ar    1  UNL1        0.1826
     18 N          59.9670   85.5185    7.0952 N.ar    1  UNL1       -0.2280
     19 C          64.3962   90.5857   15.3139 C.3     1  UNL1        0.1410
     20 C          64.3310   92.0668   15.5421 C.3     1  UNL1        0.2268
     21 O          65.4994   92.9340   15.1774 O.3     1  UNL1       -0.4737
     22 C          66.2721   92.6618   13.9209 C.ar    1  UNL1        0.1426
     23 C          65.6048   92.8015   12.5849 C.ar    1  UNL1        0.0392
     24 C          66.3776   92.5292   11.3284 C.ar    1  UNL1        0.0327
     25 C          67.8177   92.1172   11.4080 C.ar    1  UNL1        0.1403
     26 F          68.5905   91.8449   10.1516 F       1  UNL1       -0.2042
     27 C          68.4851   91.9775   12.7442 C.ar    1  UNL1        0.0366
     28 C          67.7123   92.2497   14.0006 C.ar    1  UNL1        0.1075
     29 C          68.3796   92.1100   15.3367 C.3     1  UNL1        0.4214
     30 F          69.0469   91.9703   16.6728 F       1  UNL1       -0.1657
     31 F          69.0278   93.4502   15.1531 F       1  UNL1       -0.1657
     32 F          67.7314   90.7698   15.5203 F       1  UNL1       -0.1657
@<TRIPOS>BOND
     1    13    14    1
     2    14    15   ar
     3    15    16   ar
     4    16     1    1
     5     1     2   ar
     6     2     3   ar
     7     3     4   ar
     8     4     5   ar
     9     5     6   ar
    10     6     7    2
    11     5     8    1
    12     8     9    1
    13     9    10    1
    14    10    19    1
    15    19    20    1
    16    20    21    1
    17    21    22    1
    18    22    23   ar
    19    23    24   ar
    20    24    25   ar
    21    25    26    1
    22    25    27   ar
    23    27    28   ar
    24    28    29    1
    25    29    30    1
    26    29    31    1
    27    29    32    1
    28    10    11   am
    29    11    12    2
    30    16    17   ar
    31    17    18   ar
    32    18    14   ar
    33     6     1   ar
    34    28    22   ar
    35    11     4    1
@<TRIPOS>MOLECULE
*****
 32 35 0 0 0
SMALL
GASTEIGER

@<TRIPOS>ATOM
      1 C          65.6587   91.6448   13.7523 C.ar    1  UNL1        0.1219
      2 C          64.7301   91.0777   14.7848 C.ar    1  UNL1        0.0240
      3 C          63.3753   90.5765   14.3807 C.ar    1  UNL1        0.0235
      4 C          62.9492   90.6423   12.9440 C.ar    1  UNL1        0.1166
      5 N          63.8778   91.2094   11.9115 N.ar    1  UNL1       -0.2887
      6 C          65.2325   91.7106   12.3157 C.ar    1  UNL1        0.2772
      7 O          66.1612   92.2777   11.2831 O.2     1  UNL1       -0.2654
      8 C          63.4516   91.2753   10.4748 C.3     1  UNL1        0.1307
      9 C          62.0969   90.7740   10.0706 C.3     1  UNL1        0.1184
     10 N          61.1682   90.2069   11.1032 N.am    1  UNL1       -0.2691
     11 C          61.5943   90.1411   12.5398 C.2     1  UNL1        0.2652
     12 O          60.6658   89.5740   13.5724 O.2     1  UNL1       -0.2683
     13 C          69.5066   94.2545   16.2551 C.3     1  UNL1        0.0538
     14 C          68.7822   93.3456   15.3069 C.ar    1  UNL1        0.0786
     15 C          67.2984   93.1335   15.2491 C.ar    1  UNL1        0.0963
     16 N          67.0135   92.1461   14.1565 N.ar    1  UNL1       -0.2825
     17 C          68.3212   91.7479   13.5390 C.ar    1  UNL1        0.1826
     18 N          69.4143   92.4892   14.2500 N.ar    1  UNL1       -0.2280
     19 C          59.8134   89.7057   10.6990 C.3     1  UNL1        0.1410
     20 C          59.4142   88.2928   11.0061 C.3     1  UNL1        0.2268
     21 O          60.4652   87.2628   11.2969 O.3     1  UNL1       -0.4737
     22 C          61.1385   86.5391   10.1687 C.ar    1  UNL1        0.1426
     23 C          60.6197   86.6841    8.7688 C.ar    1  UNL1        0.0392
     24 C          61.2930   85.9604    7.6406 C.ar    1  UNL1        0.0327
     25 C          62.4852   85.0917    7.9123 C.ar    1  UNL1        0.1403
     26 F          63.1586   84.3680    6.7841 F       1  UNL1       -0.2042
     27 C          63.0041   84.9466    9.3122 C.ar    1  UNL1        0.0366
     28 C          62.3308   85.6703   10.4404 C.ar    1  UNL1        0.1075
     29 C          62.8496   85.5252   11.8403 C.3     1  UNL1        0.4214
     30 F          63.3685   85.3802   13.2403 F       1  UNL1       -0.1657
     31 F          63.1590   86.9924   11.8777 F       1  UNL1       -0.1657
     32 F          62.5403   84.0579   11.8029 F       1  UNL1       -0.1657
@<TRIPOS>BOND
     1    13    14    1
     2    14    15   ar
     3    15    16   ar
     4    16     1    1
     5     1     2   ar
     6     2     3   ar
     7     3     4   ar
     8     4     5   ar
     9     5     6   ar
    10     6     7    2
    11     5     8    1
    12     8     9    1
    13     9    10    1
    14    10    19    1
    15    19    20    1
    16    20    21    1
    17    21    22    1
    18    22    23   ar
    19    23    24   ar
    20    24    25   ar
    21    25    26    1
    22    25    27   ar
    23    27    28   ar
    24    28    29    1
    25    29    30    1
    26    29    31    1
    27    29    32    1
    28    10    11   am
    29    11    12    2
    30    16    17   ar
    31    17    18   ar
    32    18    14   ar
    33     6     1   ar
    34    28    22   ar
    35    11     4    1
@<TRIPOS>MOLECULE
*****
 32 35 0 0 0
SMALL
GASTEIGER

@<TRIPOS>ATOM
      1 C          62.8783   84.3217   12.1812 C.ar    1  UNL1        0.1219
      2 C          62.2072   85.0925   11.0833 C.ar    1  UNL1        0.0240
      3 C          62.2218   86.5922   11.1026 C.ar    1  UNL1        0.0235
      4 C          62.9074   87.3213   12.2199 C.ar    1  UNL1        0.1166
      5 N          63.5785   86.5506   13.3179 N.ar    1  UNL1       -0.2887
      6 C          63.5640   85.0508   13.2985 C.ar    1  UNL1        0.2772
      7 O          64.2351   84.2800   14.3966 O.2     1  UNL1       -0.2654
      8 C          64.2642   87.2796   14.4352 C.3     1  UNL1        0.1307
      9 C          64.2788   88.7794   14.4545 C.3     1  UNL1        0.1184
     10 N          63.6076   89.5502   13.3565 N.am    1  UNL1       -0.2691
     11 C          62.9220   88.8211   12.2392 C.2     1  UNL1        0.2652
     12 O          62.2509   89.5919   11.1412 O.2     1  UNL1       -0.2683
     13 C          62.1613   79.2879   13.6053 C.3     1  UNL1        0.0538
     14 C          62.5342   80.5081   12.8166 C.ar    1  UNL1        0.0786
     15 C          62.3582   81.9309   13.2577 C.ar    1  UNL1        0.0963
     16 N          62.8638   82.8219   12.1620 N.ar    1  UNL1       -0.2825
     17 C          63.3522   81.9497   11.0436 C.ar    1  UNL1        0.1826
     18 N          63.1486   80.5197   11.4481 N.ar    1  UNL1       -0.2280
     19 C          63.6222   91.0500   13.3758 C.3     1  UNL1        0.1410
     20 C          64.3313   91.7790   14.4784 C.3     1  UNL1        0.2268
     21 O          65.3480   92.8316   14.1489 O.3     1  UNL1       -0.4737
     22 C          66.3081   92.6185   13.0164 C.ar    1  UNL1        0.1426
     23 C          65.8700   92.8707   11.6041 C.ar    1  UNL1        0.0392
     24 C          66.8301   92.6577   10.4716 C.ar    1  UNL1        0.0327
     25 C          68.2284   92.1924   10.7512 C.ar    1  UNL1        0.1403
     26 F          69.1886   91.9793    9.6187 F       1  UNL1       -0.2042
     27 C          68.6666   91.9402   12.1635 C.ar    1  UNL1        0.0366
     28 C          67.7065   92.1532   13.2961 C.ar    1  UNL1        0.1075
     29 C          68.1446   91.9011   14.7083 C.3     1  UNL1        0.4214
     30 F          68.5828   91.6489   16.1206 F       1  UNL1       -0.1657
     31 F          68.9641   93.1570   14.6783 F       1  UNL1       -0.1657
     32 F          67.3251   90.6451   14.7382 F       1  UNL1       -0.1657
@<TRIPOS>BOND
     1    13    14    1
     2    14    15   ar
     3    15    16   ar
     4    16     1    1
     5     1     2   ar
     6     2     3   ar
     7     3     4   ar
     8     4     5   ar
     9     5     6   ar
    10     6     7    2
    11     5     8    1
    12     8     9    1
    13     9    10    1
    14    10    19    1
    15    19    20    1
    16    20    21    1
    17    21    22    1
    18    22    23   ar
    19    23    24   ar
    20    24    25   ar
    21    25    26    1
    22    25    27   ar
    23    27    28   ar
    24    28    29    1
    25    29    30    1
    26    29    31    1
    27    29    32    1
    28    10    11   am
    29    11    12    2
    30    16    17   ar
    31    17    18   ar
    32    18    14   ar
    33     6     1   ar
    34    28    22   ar
    35    11     4    1
@<TRIPOS>MOLECULE
*****
 32 35 0 0 0
SMALL
GASTEIGER

@<TRIPOS>ATOM
      1 C          62.8941   83.7126   12.0795 C.ar    1  UNL1        0.1219
      2 C          62.2526   84.5959   11.0508 C.ar    1  UNL1        0.0240
      3 C          62.3159   86.0872   11.1983 C.ar    1  UNL1        0.0235
      4 C          63.0208   86.6954   12.3744 C.ar    1  UNL1        0.1166
      5 N          63.6623   85.8121   13.4031 N.ar    1  UNL1       -0.2887
      6 C          63.5990   84.3208   13.2557 C.ar    1  UNL1        0.2772
      7 O          64.2405   83.4375   14.2844 O.2     1  UNL1       -0.2654
      8 C          64.3671   86.4203   14.5793 C.3     1  UNL1        0.1307
      9 C          64.4305   87.9116   14.7268 C.3     1  UNL1        0.1184
     10 N          63.7889   88.7949   13.6980 N.am    1  UNL1       -0.2691
     11 C          63.0841   88.1868   12.5218 C.2     1  UNL1        0.2652
     12 O          62.4425   89.0700   11.4931 O.2     1  UNL1       -0.2683
     13 C          63.0086   78.8632    9.9937 C.3     1  UNL1        0.0538
     14 C          62.8835   79.9922   10.9733 C.ar    1  UNL1        0.0786
     15 C          63.0364   81.4513   10.6612 C.ar    1  UNL1        0.0963
     16 N          62.8308   82.2212   11.9321 N.ar    1  UNL1       -0.2825
     17 C          62.5510   81.2378   13.0296 C.ar    1  UNL1        0.1826
     18 N          62.5835   79.8602   12.4371 N.ar    1  UNL1       -0.2280
     19 C          63.8522   90.2863   13.8455 C.3     1  UNL1        0.1410
     20 C          64.3302   91.1333   12.7034 C.3     1  UNL1        0.2268
     21 O          65.0313   92.4314   12.9745 O.3     1  UNL1       -0.4737
     22 C          66.1873   92.4742   13.9293 C.ar    1  UNL1        0.1426
     23 C          65.9414   92.6642   15.3968 C.ar    1  UNL1        0.0392
     24 C          67.0974   92.7071   16.3516 C.ar    1  UNL1        0.0327
     25 C          68.4994   92.5600   15.8391 C.ar    1  UNL1        0.1403
     26 F          69.6554   92.6028   16.7939 F       1  UNL1       -0.2042
     27 C          68.7454   92.3699   14.3716 C.ar    1  UNL1        0.0366
     28 C          67.5894   92.3271   13.4167 C.ar    1  UNL1        0.1075
     29 C          67.8353   92.1371   11.9493 C.3     1  UNL1        0.4214
     30 F          68.0813   91.9470   10.4818 F       1  UNL1       -0.1657
     31 F          68.7596   90.9952   12.2521 F       1  UNL1       -0.1657
     32 F          66.9111   93.2790   11.6465 F       1  UNL1       -0.1657
@<TRIPOS>BOND
     1    13    14    1
     2    14    15   ar
     3    15    16   ar
     4    16     1    1
     5     1     2   ar
     6     2     3   ar
     7     3     4   ar
     8     4     5   ar
     9     5     6   ar
    10     6     7    2
    11     5     8    1
    12     8     9    1
    13     9    10    1
    14    10    19    1
    15    19    20    1
    16    20    21    1
    17    21    22    1
    18    22    23   ar
    19    23    24   ar
    20    24    25   ar
    21    25    26    1
    22    25    27   ar
    23    27    28   ar
    24    28    29    1
    25    29    30    1
    26    29    31    1
    27    29    32    1
    28    10    11   am
    29    11    12    2
    30    16    17   ar
    31    17    18   ar
    32    18    14   ar
    33     6     1   ar
    34    28    22   ar
    35    11     4    1
@<TRIPOS>MOLECULE
*****
 32 35 0 0 0
SMALL
GASTEIGER

@<TRIPOS>ATOM
      1 C          62.8786   84.3810   12.4085 C.ar    1  UNL1        0.1219
      2 C          62.1842   84.5903   11.0955 C.ar    1  UNL1        0.0240
      3 C          62.0075   85.9776   10.5533 C.ar    1  UNL1        0.0235
      4 C          62.5253   87.1557   11.3241 C.ar    1  UNL1        0.1166
      5 N          63.2197   86.9464   12.6370 N.ar    1  UNL1       -0.2887
      6 C          63.3964   85.5591   13.1792 C.ar    1  UNL1        0.2772
      7 O          64.0908   85.3497   14.4923 O.2     1  UNL1       -0.2654
      8 C          63.7375   88.1245   13.4078 C.3     1  UNL1        0.1307
      9 C          63.5609   89.5118   12.8656 C.3     1  UNL1        0.1184
     10 N          62.8664   89.7212   11.5526 N.am    1  UNL1       -0.2691
     11 C          62.3487   88.5431   10.7818 C.2     1  UNL1        0.2652
     12 O          61.6542   88.7524    9.4688 O.2     1  UNL1       -0.2683
     13 C          62.1941   79.2292   13.3420 C.3     1  UNL1        0.0538
     14 C          62.7406   80.6256   13.3798 C.ar    1  UNL1        0.0786
     15 C          62.2102   81.8010   12.6136 C.ar    1  UNL1        0.0963
     16 N          63.0552   82.9936   12.9507 N.ar    1  UNL1       -0.2825
     17 C          64.1079   82.5553   13.9252 C.ar    1  UNL1        0.1826
     18 N          63.9135   81.0918   14.1905 N.ar    1  UNL1       -0.2280
     19 C          62.6898   91.1085   11.0104 C.3     1  UNL1        0.1410
     20 C          63.7271   91.6956   10.0997 C.3     1  UNL1        0.2268
     21 O          64.6300   92.7860   10.5957 O.3     1  UNL1       -0.4737
     22 C          65.6254   92.4999   11.6807 C.ar    1  UNL1        0.1426
     23 C          65.1535   92.2206   13.0769 C.ar    1  UNL1        0.0392
     24 C          66.1489   91.9346   14.1619 C.ar    1  UNL1        0.0327
     25 C          67.6162   91.9278   13.8508 C.ar    1  UNL1        0.1403
     26 F          68.6116   91.6418   14.9359 F       1  UNL1       -0.2042
     27 C          68.0882   92.2072   12.4547 C.ar    1  UNL1        0.0366
     28 C          67.0928   92.4932   11.3696 C.ar    1  UNL1        0.1075
     29 C          67.5648   92.7725    9.9735 C.3     1  UNL1        0.4214
     30 F          68.0367   93.0518    8.5773 F       1  UNL1       -0.1657
     31 F          67.9353   91.3283    9.8098 F       1  UNL1       -0.1657
     32 F          67.1942   94.2168   10.1372 F       1  UNL1       -0.1657
@<TRIPOS>BOND
     1    13    14    1
     2    14    15   ar
     3    15    16   ar
     4    16     1    1
     5     1     2   ar
     6     2     3   ar
     7     3     4   ar
     8     4     5   ar
     9     5     6   ar
    10     6     7    2
    11     5     8    1
    12     8     9    1
    13     9    10    1
    14    10    19    1
    15    19    20    1
    16    20    21    1
    17    21    22    1
    18    22    23   ar
    19    23    24   ar
    20    24    25   ar
    21    25    26    1
    22    25    27   ar
    23    27    28   ar
    24    28    29    1
    25    29    30    1
    26    29    31    1
    27    29    32    1
    28    10    11   am
    29    11    12    2
    30    16    17   ar
    31    17    18   ar
    32    18    14   ar
    33     6     1   ar
    34    28    22   ar
    35    11     4    1
@<TRIPOS>MOLECULE
*****
 32 35 0 0 0
SMALL
GASTEIGER

@<TRIPOS>ATOM
      1 C          61.9967   87.2110   10.1148 C.ar    1  UNL1        0.1219
      2 C          62.5089   86.4296   11.2882 C.ar    1  UNL1        0.0240
      3 C          63.1609   87.1414   12.4363 C.ar    1  UNL1        0.0235
      4 C          63.3006   88.6347   12.4110 C.ar    1  UNL1        0.1166
      5 N          62.7885   89.4161   11.2376 N.ar    1  UNL1       -0.2887
      6 C          62.1365   88.7043   10.0895 C.ar    1  UNL1        0.2772
      7 O          61.6243   89.4857    8.9160 O.2     1  UNL1       -0.2654
      8 C          62.9283   90.9094   11.2123 C.3     1  UNL1        0.1307
      9 C          63.5802   91.6212   12.3604 C.3     1  UNL1        0.1184
     10 N          64.0924   90.8398   13.5339 N.am    1  UNL1       -0.2691
     11 C          63.9526   89.3465   13.5592 C.2     1  UNL1        0.2652
     12 O          64.4648   88.5651   14.7327 O.2     1  UNL1       -0.2683
     13 C          61.2441   84.1451    5.8822 C.3     1  UNL1        0.0538
     14 C          60.9988   85.0899    7.0211 C.ar    1  UNL1        0.0786
     15 C          62.0251   85.5729    8.0027 C.ar    1  UNL1        0.0963
     16 N          61.3447   86.4992    8.9666 N.ar    1  UNL1       -0.2825
     17 C          59.8980   86.5887    8.5808 C.ar    1  UNL1        0.1826
     18 N          59.6842   85.7178    7.3784 N.ar    1  UNL1       -0.2280
     19 C          64.7444   91.5516   14.6820 C.3     1  UNL1        0.1410
     20 C          65.9790   92.3719   14.4522 C.3     1  UNL1        0.2268
     21 O          66.0319   93.3440   13.3110 O.3     1  UNL1       -0.4737
     22 C          66.8468   93.0263   12.0924 C.ar    1  UNL1        0.1426
     23 C          67.7887   91.8590   12.1034 C.ar    1  UNL1        0.0392
     24 C          68.6036   91.5413   10.8848 C.ar    1  UNL1        0.0327
     25 C          68.4767   92.3910    9.6552 C.ar    1  UNL1        0.1403
     26 F          69.2916   92.0733    8.4366 F       1  UNL1       -0.2042
     27 C          67.5348   93.5584    9.6441 C.ar    1  UNL1        0.0366
     28 C          66.7199   93.8761   10.8627 C.ar    1  UNL1        0.1075
     29 C          65.7780   95.0434   10.8517 C.3     1  UNL1        0.4214
     30 F          64.8360   96.2108   10.8407 F       1  UNL1       -0.1657
     31 F          64.6499   94.1297   10.4743 F       1  UNL1       -0.1657
     32 F          66.9060   95.9571   11.2292 F       1  UNL1       -0.1657
@<TRIPOS>BOND
     1    13    14    1
     2    14    15   ar
     3    15    16   ar
     4    16     1    1
     5     1     2   ar
     6     2     3   ar
     7     3     4   ar
     8     4     5   ar
     9     5     6   ar
    10     6     7    2
    11     5     8    1
    12     8     9    1
    13     9    10    1
    14    10    19    1
    15    19    20    1
    16    20    21    1
    17    21    22    1
    18    22    23   ar
    19    23    24   ar
    20    24    25   ar
    21    25    26    1
    22    25    27   ar
    23    27    28   ar
    24    28    29    1
    25    29    30    1
    26    29    31    1
    27    29    32    1
    28    10    11   am
    29    11    12    2
    30    16    17   ar
    31    17    18   ar
    32    18    14   ar
    33     6     1   ar
    34    28    22   ar
    35    11     4    1
