@<TRIPOS>MOLECULE
*****
 31 35 0 0 0
SMALL
GASTEIGER

@<TRIPOS>ATOM
      1 O          63.6253   89.3885   12.8758 O.2     1  UNL1       -0.2638
      2 C          62.7930   88.7523   11.8022 C.2     1  UNL1        0.3160
      3 N          62.1642   89.6021   10.7381 N.am    1  UNL1       -0.1720
      4 C          61.3319   88.9659    9.6645 C.ar    1  UNL1        0.0775
      5 C          60.7031   89.8157    8.6004 C.ar    1  UNL1        0.0167
      6 C          59.8709   89.1794    7.5269 C.ar    1  UNL1        0.0013
      7 C          59.6673   87.6933    7.5175 C.ar    1  UNL1        0.0002
      8 C          60.2960   86.8435    8.5817 C.ar    1  UNL1        0.0051
      9 C          61.1283   87.4798    9.6552 C.ar    1  UNL1        0.0623
     10 C          61.7571   86.6299   10.7194 C.2     1  UNL1        0.2419
     11 N          61.7334   85.1507   10.9667 N.2     1  UNL1       -0.0302
     12 C          62.5510   84.8727   12.1932 C.2     1  UNL1        0.3765
     13 N          63.0801   86.1801   12.7037 N.2     1  UNL1       -0.0256
     14 C          62.5894   87.2662   11.7929 C.2     1  UNL1        0.2907
     15 C          62.7965   83.5240   12.8022 C.ar    1  UNL1        0.1028
     16 C          62.3335   83.2365   14.1996 C.ar    1  UNL1        0.0650
     17 CL         61.6249   84.2977   14.9882 Cl      1  UNL1       -0.0820
     18 C          62.5790   81.8879   14.8085 C.ar    1  UNL1        0.0116
     19 C          63.2875   80.8267   14.0200 C.ar    1  UNL1        0.0008
     20 C          63.7506   81.1141   12.6226 C.ar    1  UNL1        0.0042
     21 C          63.5051   82.4628   12.0137 C.ar    1  UNL1        0.0797
     22 C          63.9682   82.7503   10.6161 C.3     1  UNL1        0.4188
     23 F          64.4312   83.0378    9.2187 F       1  UNL1       -0.1659
     24 F          62.9092   81.8349   10.0769 F       1  UNL1       -0.1659
     25 F          65.0271   83.6657   11.1553 F       1  UNL1       -0.1659
     26 C          59.2421   90.0293    6.4627 C.ar    1  UNL1        0.0000
     27 C          60.1038   90.8685    5.5666 C.ar    1  UNL1        0.0000
     28 C          59.4751   91.7184    4.5024 C.ar    1  UNL1        0.0000
     29 C          57.9845   91.7290    4.3343 C.ar    1  UNL1        0.0000
     30 C          57.1228   90.8897    5.2305 C.ar    1  UNL1        0.0000
     31 C          57.7516   90.0398    6.2947 C.ar    1  UNL1        0.0000
@<TRIPOS>BOND
     1     1     2    2
     2     2     3    1
     3     3     4    2
     4     4     5   ar
     5     5     6   ar
     6     6    26    1
     7    26    27   ar
     8    27    28   ar
     9    28    29   ar
    10    29    30   ar
    11    30    31   ar
    12     6     7   ar
    13     7     8   ar
    14     8     9   ar
    15     9    10    2
    16    10    11    1
    17    11    12    2
    18    12    15    1
    19    15    16   ar
    20    16    17    1
    21    16    18   ar
    22    18    19   ar
    23    19    20   ar
    24    20    21   ar
    25    21    22    1
    26    22    23    1
    27    22    24    1
    28    22    25    1
    29    12    13    1
    30    13    14    2
    31    14     2    1
    32     9     4   ar
    33    14    10    1
    34    31    26   ar
    35    21    15   ar
@<TRIPOS>MOLECULE
*****
 31 35 0 0 0
SMALL
GASTEIGER

@<TRIPOS>ATOM
      1 O          63.5582   89.3630   12.8830 O.2     1  UNL1       -0.2638
      2 C          62.7486   88.7296   11.7905 C.2     1  UNL1        0.3160
      3 N          62.1077   89.5861   10.7391 N.am    1  UNL1       -0.1720
      4 C          61.2981   88.9527    9.6466 C.ar    1  UNL1        0.0775
      5 C          60.6571   89.8093    8.5952 C.ar    1  UNL1        0.0167
      6 C          59.8476   89.1759    7.5028 C.ar    1  UNL1        0.0013
      7 C          59.6790   87.6859    7.4618 C.ar    1  UNL1        0.0002
      8 C          60.3200   86.8294    8.5132 C.ar    1  UNL1        0.0051
      9 C          61.1295   87.4628    9.6056 C.ar    1  UNL1        0.0623
     10 C          61.7705   86.6063   10.6571 C.2     1  UNL1        0.2419
     11 N          61.7797   85.1221   10.8743 N.2     1  UNL1       -0.0302
     12 C          62.5949   84.8382   12.1010 C.2     1  UNL1        0.3765
     13 N          63.0896   86.1469   12.6419 N.2     1  UNL1       -0.0256
     14 C          62.5800   87.2396   11.7495 C.2     1  UNL1        0.2907
     15 C          62.8677   83.4834   12.6844 C.ar    1  UNL1        0.1028
     16 C          63.0452   82.2996   11.7805 C.ar    1  UNL1        0.0650
     17 CL         62.9500   82.4705   10.2933 Cl      1  UNL1       -0.0820
     18 C          63.3179   80.9449   12.3639 C.ar    1  UNL1        0.0116
     19 C          63.4131   80.7741   13.8511 C.ar    1  UNL1        0.0008
     20 C          63.2355   81.9579   14.7549 C.ar    1  UNL1        0.0042
     21 C          62.9628   83.3126   14.1715 C.ar    1  UNL1        0.0797
     22 C          62.7853   84.4965   15.0754 C.3     1  UNL1        0.4188
     23 F          62.6077   85.6804   15.9792 F       1  UNL1       -0.1659
     24 F          61.2963   84.3312   14.9994 F       1  UNL1       -0.1659
     25 F          64.2742   84.6619   15.1513 F       1  UNL1       -0.1659
     26 C          59.2066   90.0324    6.4514 C.ar    1  UNL1        0.0000
     27 C          57.7148   90.0370    6.2946 C.ar    1  UNL1        0.0000
     28 C          57.0738   90.8934    5.2432 C.ar    1  UNL1        0.0000
     29 C          57.9246   91.7454    4.3485 C.ar    1  UNL1        0.0000
     30 C          59.4164   91.7409    4.5053 C.ar    1  UNL1        0.0000
     31 C          60.0574   90.8843    5.5567 C.ar    1  UNL1        0.0000
@<TRIPOS>BOND
     1     1     2    2
     2     2     3    1
     3     3     4    2
     4     4     5   ar
     5     5     6   ar
     6     6    26    1
     7    26    27   ar
     8    27    28   ar
     9    28    29   ar
    10    29    30   ar
    11    30    31   ar
    12     6     7   ar
    13     7     8   ar
    14     8     9   ar
    15     9    10    2
    16    10    11    1
    17    11    12    2
    18    12    15    1
    19    15    16   ar
    20    16    17    1
    21    16    18   ar
    22    18    19   ar
    23    19    20   ar
    24    20    21   ar
    25    21    22    1
    26    22    23    1
    27    22    24    1
    28    22    25    1
    29    12    13    1
    30    13    14    2
    31    14     2    1
    32     9     4   ar
    33    14    10    1
    34    31    26   ar
    35    21    15   ar
@<TRIPOS>MOLECULE
*****
 31 35 0 0 0
SMALL
GASTEIGER

@<TRIPOS>ATOM
      1 O          61.3339   89.3210   10.0364 O.2     1  UNL1       -0.2638
      2 C          62.0178   88.3011   10.8979 C.2     1  UNL1        0.3160
      3 N          61.8661   86.8400   10.5944 N.am    1  UNL1       -0.1720
      4 C          62.5501   85.8201   11.4559 C.ar    1  UNL1        0.0775
      5 C          62.3983   84.3590   11.1525 C.ar    1  UNL1        0.0167
      6 C          63.0823   83.3392   12.0139 C.ar    1  UNL1        0.0013
      7 C          63.9180   83.7805   13.1788 C.ar    1  UNL1        0.0002
      8 C          64.0697   85.2416   13.4822 C.ar    1  UNL1        0.0051
      9 C          63.3858   86.2614   12.6208 C.ar    1  UNL1        0.0623
     10 C          63.5375   87.7226   12.9242 C.2     1  UNL1        0.2419
     11 N          64.2910   88.4519   13.9966 N.2     1  UNL1       -0.0302
     12 C          64.0727   89.9226   13.7980 C.2     1  UNL1        0.3765
     13 N          63.1843   90.1021   12.6028 N.2     1  UNL1       -0.0256
     14 C          62.8535   88.7424   12.0627 C.2     1  UNL1        0.2907
     15 C          64.6429   91.0210   14.6457 C.ar    1  UNL1        0.1028
     16 C          64.2588   91.1286   16.0917 C.ar    1  UNL1        0.0650
     17 CL         63.3047   90.1378   16.6900 Cl      1  UNL1       -0.0820
     18 C          64.8289   92.2269   16.9394 C.ar    1  UNL1        0.0116
     19 C          65.7831   93.2177   16.3411 C.ar    1  UNL1        0.0008
     20 C          66.1671   93.1101   14.8951 C.ar    1  UNL1        0.0042
     21 C          65.5970   92.0118   14.0474 C.ar    1  UNL1        0.0797
     22 C          65.9810   91.9042   12.6014 C.3     1  UNL1        0.4188
     23 F          66.3651   91.7966   11.1554 F       1  UNL1       -0.1659
     24 F          67.2807   91.2663   12.9940 F       1  UNL1       -0.1659
     25 F          64.6814   92.5421   12.2087 F       1  UNL1       -0.1659
     26 C          62.9306   81.8780   11.7105 C.ar    1  UNL1        0.0000
     27 C          62.5828   80.9163   12.8079 C.ar    1  UNL1        0.0000
     28 C          62.4310   79.4552   12.5045 C.ar    1  UNL1        0.0000
     29 C          62.6272   78.9557   11.1037 C.ar    1  UNL1        0.0000
     30 C          62.9750   79.9173   10.0064 C.ar    1  UNL1        0.0000
     31 C          63.1267   81.3785   10.3098 C.ar    1  UNL1        0.0000
@<TRIPOS>BOND
     1     1     2    2
     2     2     3    1
     3     3     4    2
     4     4     5   ar
     5     5     6   ar
     6     6    26    1
     7    26    27   ar
     8    27    28   ar
     9    28    29   ar
    10    29    30   ar
    11    30    31   ar
    12     6     7   ar
    13     7     8   ar
    14     8     9   ar
    15     9    10    2
    16    10    11    1
    17    11    12    2
    18    12    15    1
    19    15    16   ar
    20    16    17    1
    21    16    18   ar
    22    18    19   ar
    23    19    20   ar
    24    20    21   ar
    25    21    22    1
    26    22    23    1
    27    22    24    1
    28    22    25    1
    29    12    13    1
    30    13    14    2
    31    14     2    1
    32     9     4   ar
    33    14    10    1
    34    31    26   ar
    35    21    15   ar
@<TRIPOS>MOLECULE
*****
 31 35 0 0 0
SMALL
GASTEIGER

@<TRIPOS>ATOM
      1 O          63.2364   88.7562   17.8931 O.2     1  UNL1       -0.2638
      2 C          63.3502   88.0672   16.5655 C.2     1  UNL1        0.3160
      3 N          62.9849   86.6179   16.4388 N.am    1  UNL1       -0.1720
      4 C          63.0987   85.9289   15.1112 C.ar    1  UNL1        0.0775
      5 C          62.7334   84.4797   14.9846 C.ar    1  UNL1        0.0167
      6 C          62.8473   83.7908   13.6571 C.ar    1  UNL1        0.0013
      7 C          63.3265   84.5511   12.4562 C.ar    1  UNL1        0.0002
      8 C          63.6919   86.0004   12.5828 C.ar    1  UNL1        0.0051
      9 C          63.5780   86.6893   13.9103 C.ar    1  UNL1        0.0623
     10 C          63.9434   88.1387   14.0370 C.2     1  UNL1        0.2419
     11 N          64.4423   89.1390   13.0369 N.2     1  UNL1       -0.0302
     12 C          64.6368   90.4462   13.7464 C.2     1  UNL1        0.3765
     13 N          64.2581   90.2537   15.1849 N.2     1  UNL1       -0.0256
     14 C          63.8295   88.8276   15.3646 C.2     1  UNL1        0.2907
     15 C          65.1245   91.7220   13.1261 C.ar    1  UNL1        0.1028
     16 C          64.6342   92.1314   11.7689 C.ar    1  UNL1        0.0650
     17 CL         63.6562   91.2651   11.0320 Cl      1  UNL1       -0.0820
     18 C          65.1219   93.4072   11.1488 C.ar    1  UNL1        0.0116
     19 C          66.0998   94.2735   11.8857 C.ar    1  UNL1        0.0008
     20 C          66.5901   93.8641   13.2429 C.ar    1  UNL1        0.0042
     21 C          66.1024   92.5883   13.8631 C.ar    1  UNL1        0.0797
     22 C          66.5927   92.1789   15.2203 C.3     1  UNL1        0.4188
     23 F          67.0830   91.7694   16.5775 F       1  UNL1       -0.1659
     24 F          65.5264   93.0187   15.8589 F       1  UNL1       -0.1659
     25 F          67.6590   91.3390   14.5818 F       1  UNL1       -0.1659
     26 C          62.4819   82.3414   13.5304 C.ar    1  UNL1        0.0000
     27 C          63.1925   81.4731   12.5349 C.ar    1  UNL1        0.0000
     28 C          62.8272   80.0238   12.4082 C.ar    1  UNL1        0.0000
     29 C          61.7512   79.4428   13.2770 C.ar    1  UNL1        0.0000
     30 C          61.0405   80.3112   14.2724 C.ar    1  UNL1        0.0000
     31 C          61.4059   81.7605   14.3991 C.ar    1  UNL1        0.0000
@<TRIPOS>BOND
     1     1     2    2
     2     2     3    1
     3     3     4    2
     4     4     5   ar
     5     5     6   ar
     6     6    26    1
     7    26    27   ar
     8    27    28   ar
     9    28    29   ar
    10    29    30   ar
    11    30    31   ar
    12     6     7   ar
    13     7     8   ar
    14     8     9   ar
    15     9    10    2
    16    10    11    1
    17    11    12    2
    18    12    15    1
    19    15    16   ar
    20    16    17    1
    21    16    18   ar
    22    18    19   ar
    23    19    20   ar
    24    20    21   ar
    25    21    22    1
    26    22    23    1
    27    22    24    1
    28    22    25    1
    29    12    13    1
    30    13    14    2
    31    14     2    1
    32     9     4   ar
    33    14    10    1
    34    31    26   ar
    35    21    15   ar
@<TRIPOS>MOLECULE
*****
 31 35 0 0 0
SMALL
GASTEIGER

@<TRIPOS>ATOM
      1 O          60.8146   89.4028    9.5543 O.2     1  UNL1       -0.2638
      2 C          61.6149   88.5963   10.5338 C.2     1  UNL1        0.3160
      3 N          61.3558   87.1266   10.6839 N.am    1  UNL1       -0.1720
      4 C          62.1561   86.3201   11.6634 C.ar    1  UNL1        0.0775
      5 C          61.8970   84.8503   11.8135 C.ar    1  UNL1        0.0167
      6 C          62.6973   84.0440   12.7929 C.ar    1  UNL1        0.0013
      7 C          63.7566   84.7074   13.6222 C.ar    1  UNL1        0.0002
      8 C          64.0157   86.1772   13.4720 C.ar    1  UNL1        0.0051
      9 C          63.2154   86.9835   12.4926 C.ar    1  UNL1        0.0623
     10 C          63.4745   88.4534   12.3424 C.2     1  UNL1        0.2419
     11 N          64.4457   89.3755   13.0180 N.2     1  UNL1       -0.0302
     12 C          64.2457   90.7518   12.4561 C.2     1  UNL1        0.3765
     13 N          63.1508   90.6803   11.4333 N.2     1  UNL1       -0.0256
     14 C          62.6742   89.2597   11.3630 C.2     1  UNL1        0.2907
     15 C          65.0069   91.9834   12.8482 C.ar    1  UNL1        0.1028
     16 C          65.4392   92.9639   11.7985 C.ar    1  UNL1        0.0650
     17 CL         65.1103   92.7127   10.3567 Cl      1  UNL1       -0.0820
     18 C          66.2003   94.1954   12.1907 C.ar    1  UNL1        0.0116
     19 C          66.5292   94.4465   13.6325 C.ar    1  UNL1        0.0008
     20 C          66.0970   93.4661   14.6821 C.ar    1  UNL1        0.0042
     21 C          65.3358   92.2346   14.2900 C.ar    1  UNL1        0.0797
     22 C          64.9035   91.2540   15.3397 C.3     1  UNL1        0.4188
     23 F          64.4712   90.2735   16.3893 F       1  UNL1       -0.1659
     24 F          66.1907   90.5031   15.1684 F       1  UNL1       -0.1659
     25 F          63.6163   92.0049   15.5110 F       1  UNL1       -0.1659
     26 C          62.4382   82.5741   12.9431 C.ar    1  UNL1        0.0000
     27 C          61.6690   82.0652   14.1260 C.ar    1  UNL1        0.0000
     28 C          61.4099   80.5954   14.2762 C.ar    1  UNL1        0.0000
     29 C          61.9201   79.6345   13.2435 C.ar    1  UNL1        0.0000
     30 C          62.6893   80.1434   12.0606 C.ar    1  UNL1        0.0000
     31 C          62.9484   81.6133   11.9104 C.ar    1  UNL1        0.0000
@<TRIPOS>BOND
     1     1     2    2
     2     2     3    1
     3     3     4    2
     4     4     5   ar
     5     5     6   ar
     6     6    26    1
     7    26    27   ar
     8    27    28   ar
     9    28    29   ar
    10    29    30   ar
    11    30    31   ar
    12     6     7   ar
    13     7     8   ar
    14     8     9   ar
    15     9    10    2
    16    10    11    1
    17    11    12    2
    18    12    15    1
    19    15    16   ar
    20    16    17    1
    21    16    18   ar
    22    18    19   ar
    23    19    20   ar
    24    20    21   ar
    25    21    22    1
    26    22    23    1
    27    22    24    1
    28    22    25    1
    29    12    13    1
    30    13    14    2
    31    14     2    1
    32     9     4   ar
    33    14    10    1
    34    31    26   ar
    35    21    15   ar
@<TRIPOS>MOLECULE
*****
 31 35 0 0 0
SMALL
GASTEIGER

@<TRIPOS>ATOM
      1 O          67.6384   94.2462   15.6393 O.2     1  UNL1       -0.2638
      2 C          66.8070   93.2211   14.9265 C.2     1  UNL1        0.3160
      3 N          66.2770   92.0336   15.6742 N.am    1  UNL1       -0.1720
      4 C          65.4456   91.0085   14.9614 C.ar    1  UNL1        0.0775
      5 C          64.9156   89.8211   15.7091 C.ar    1  UNL1        0.0167
      6 C          64.0842   88.7961   14.9963 C.ar    1  UNL1        0.0013
      7 C          63.7828   88.9585   13.5359 C.ar    1  UNL1        0.0002
      8 C          64.3128   90.1460   12.7883 C.ar    1  UNL1        0.0051
      9 C          65.1441   91.1710   13.5010 C.ar    1  UNL1        0.0623
     10 C          65.6742   92.3585   12.7534 C.2     1  UNL1        0.2419
     11 N          65.5427   92.7829   11.3207 N.2     1  UNL1       -0.0302
     12 C          66.2929   94.0703   11.1480 C.2     1  UNL1        0.3765
     13 N          66.8880   94.4415   12.4740 N.2     1  UNL1       -0.0256
     14 C          66.5056   93.3835   13.4661 C.2     1  UNL1        0.2907
     15 C          66.4249   94.8497    9.8732 C.ar    1  UNL1        0.1028
     16 C          65.5799   96.0685    9.6483 C.ar    1  UNL1        0.0650
     17 CL         64.6030   96.5080   10.6983 Cl      1  UNL1       -0.0820
     18 C          65.7119   96.8478    8.3735 C.ar    1  UNL1        0.0116
     19 C          66.6888   96.4084    7.3235 C.ar    1  UNL1        0.0008
     20 C          67.5338   95.1896    7.5483 C.ar    1  UNL1        0.0042
     21 C          67.4018   94.4103    8.8232 C.ar    1  UNL1        0.0797
     22 C          68.2468   93.1914    9.0480 C.3     1  UNL1        0.4188
     23 F          69.0916   91.9726    9.2729 F       1  UNL1       -0.1659
     24 F          67.1189   92.3224    8.5758 F       1  UNL1       -0.1659
     25 F          69.3746   94.0603    9.5202 F       1  UNL1       -0.1659
     26 C          63.5542   87.6085   15.7439 C.ar    1  UNL1        0.0000
     27 C          62.9507   87.7877   17.1054 C.ar    1  UNL1        0.0000
     28 C          62.4207   86.6002   17.8531 C.ar    1  UNL1        0.0000
     29 C          62.4942   85.2335   17.2392 C.ar    1  UNL1        0.0000
     30 C          63.0977   85.0543   15.8777 C.ar    1  UNL1        0.0000
     31 C          63.6277   86.2419   15.1301 C.ar    1  UNL1        0.0000
@<TRIPOS>BOND
     1     1     2    2
     2     2     3    1
     3     3     4    2
     4     4     5   ar
     5     5     6   ar
     6     6    26    1
     7    26    27   ar
     8    27    28   ar
     9    28    29   ar
    10    29    30   ar
    11    30    31   ar
    12     6     7   ar
    13     7     8   ar
    14     8     9   ar
    15     9    10    2
    16    10    11    1
    17    11    12    2
    18    12    15    1
    19    15    16   ar
    20    16    17    1
    21    16    18   ar
    22    18    19   ar
    23    19    20   ar
    24    20    21   ar
    25    21    22    1
    26    22    23    1
    27    22    24    1
    28    22    25    1
    29    12    13    1
    30    13    14    2
    31    14     2    1
    32     9     4   ar
    33    14    10    1
    34    31    26   ar
    35    21    15   ar
@<TRIPOS>MOLECULE
*****
 31 35 0 0 0
SMALL
GASTEIGER

@<TRIPOS>ATOM
      1 O          61.3038   88.8605    9.7487 O.2     1  UNL1       -0.2638
      2 C          61.9581   87.8358   10.6274 C.2     1  UNL1        0.3160
      3 N          61.8399   86.3778   10.2955 N.am    1  UNL1       -0.1720
      4 C          62.4941   85.3531   11.1742 C.ar    1  UNL1        0.0775
      5 C          62.3759   83.8951   10.8423 C.ar    1  UNL1        0.0167
      6 C          63.0301   82.8705   11.7210 C.ar    1  UNL1        0.0013
      7 C          63.8025   83.3040   12.9316 C.ar    1  UNL1        0.0002
      8 C          63.9207   84.7620   13.2635 C.ar    1  UNL1        0.0051
      9 C          63.2665   85.7866   12.3848 C.ar    1  UNL1        0.0623
     10 C          63.3846   87.2446   12.7167 C.2     1  UNL1        0.2419
     11 N          64.0758   87.9665   13.8352 N.2     1  UNL1       -0.0302
     12 C          63.8488   89.4374   13.6478 C.2     1  UNL1        0.3765
     13 N          63.0173   89.6244   12.4134 N.2     1  UNL1       -0.0256
     14 C          62.7304   88.2692   11.8380 C.2     1  UNL1        0.2907
     15 C          64.3629   90.5294   14.5384 C.ar    1  UNL1        0.1028
     16 C          65.3610   91.5182   14.0130 C.ar    1  UNL1        0.0650
     17 CL         65.8450   91.4150   12.5970 Cl      1  UNL1       -0.0820
     18 C          65.8752   92.6101   14.9036 C.ar    1  UNL1        0.0116
     19 C          65.3912   92.7133   16.3196 C.ar    1  UNL1        0.0008
     20 C          64.3931   91.7246   16.8450 C.ar    1  UNL1        0.0042
     21 C          63.8790   90.6326   15.9544 C.ar    1  UNL1        0.0797
     22 C          62.8808   89.6438   16.4798 C.3     1  UNL1        0.4188
     23 F          61.8828   88.6550   17.0052 F       1  UNL1       -0.1659
     24 F          63.7268   89.4389   17.7015 F       1  UNL1       -0.1659
     25 F          62.0349   89.8486   15.2582 F       1  UNL1       -0.1659
     26 C          62.9120   81.4124   11.3891 C.ar    1  UNL1        0.0000
     27 C          62.6440   80.4150   12.4769 C.ar    1  UNL1        0.0000
     28 C          62.5259   78.9570   12.1450 C.ar    1  UNL1        0.0000
     29 C          62.6757   78.4963   10.7254 C.ar    1  UNL1        0.0000
     30 C          62.9437   79.4938    9.6376 C.ar    1  UNL1        0.0000
     31 C          63.0618   80.9519    9.9695 C.ar    1  UNL1        0.0000
@<TRIPOS>BOND
     1     1     2    2
     2     2     3    1
     3     3     4    2
     4     4     5   ar
     5     5     6   ar
     6     6    26    1
     7    26    27   ar
     8    27    28   ar
     9    28    29   ar
    10    29    30   ar
    11    30    31   ar
    12     6     7   ar
    13     7     8   ar
    14     8     9   ar
    15     9    10    2
    16    10    11    1
    17    11    12    2
    18    12    15    1
    19    15    16   ar
    20    16    17    1
    21    16    18   ar
    22    18    19   ar
    23    19    20   ar
    24    20    21   ar
    25    21    22    1
    26    22    23    1
    27    22    24    1
    28    22    25    1
    29    12    13    1
    30    13    14    2
    31    14     2    1
    32     9     4   ar
    33    14    10    1
    34    31    26   ar
    35    21    15   ar
@<TRIPOS>MOLECULE
*****
 31 35 0 0 0
SMALL
GASTEIGER

@<TRIPOS>ATOM
      1 O          63.1344   88.4512   18.0225 O.2     1  UNL1       -0.2638
      2 C          63.2655   87.7916   16.6816 C.2     1  UNL1        0.3160
      3 N          62.8983   86.3466   16.5176 N.am    1  UNL1       -0.1720
      4 C          63.0294   85.6870   15.1767 C.ar    1  UNL1        0.0775
      5 C          62.6621   84.2419   15.0126 C.ar    1  UNL1        0.0167
      6 C          62.7932   83.5824   13.6718 C.ar    1  UNL1        0.0013
      7 C          63.2915   84.3679   12.4951 C.ar    1  UNL1        0.0002
      8 C          63.6587   85.8129   12.6592 C.ar    1  UNL1        0.0051
      9 C          63.5277   86.4725   14.0000 C.ar    1  UNL1        0.0623
     10 C          63.8949   87.9176   14.1641 C.2     1  UNL1        0.2419
     11 N          64.4107   88.9385   13.1937 N.2     1  UNL1       -0.0302
     12 C          64.5983   90.2290   13.9348 C.2     1  UNL1        0.3765
     13 N          64.1986   90.0057   15.3632 N.2     1  UNL1       -0.0256
     14 C          63.7638   88.5771   15.5049 C.2     1  UNL1        0.2907
     15 C          65.0981   91.5169   13.3501 C.ar    1  UNL1        0.1028
     16 C          66.0980   92.3440   14.1024 C.ar    1  UNL1        0.0650
     17 CL         66.5983   91.8833   15.4394 Cl      1  UNL1       -0.0820
     18 C          66.5977   93.6318   13.5177 C.ar    1  UNL1        0.0116
     19 C          66.0975   94.0924   12.1807 C.ar    1  UNL1        0.0008
     20 C          65.0975   93.2653   11.4285 C.ar    1  UNL1        0.0042
     21 C          64.5978   91.9776   12.0131 C.ar    1  UNL1        0.0797
     22 C          63.5978   91.1504   11.2609 C.3     1  UNL1        0.4188
     23 F          62.5979   90.3233   10.5086 F       1  UNL1       -0.1659
     24 F          64.5606   91.0266   10.1172 F       1  UNL1       -0.1659
     25 F          62.6351   91.2741   12.4044 F       1  UNL1       -0.1659
     26 C          62.4260   82.1373   13.5077 C.ar    1  UNL1        0.0000
     27 C          61.3189   81.5468   14.3297 C.ar    1  UNL1        0.0000
     28 C          60.9516   80.1017   14.1656 C.ar    1  UNL1        0.0000
     29 C          61.6915   79.2471   13.1795 C.ar    1  UNL1        0.0000
     30 C          62.7986   79.8376   12.3575 C.ar    1  UNL1        0.0000
     31 C          63.1658   81.2827   12.5216 C.ar    1  UNL1        0.0000
@<TRIPOS>BOND
     1     1     2    2
     2     2     3    1
     3     3     4    2
     4     4     5   ar
     5     5     6   ar
     6     6    26    1
     7    26    27   ar
     8    27    28   ar
     9    28    29   ar
    10    29    30   ar
    11    30    31   ar
    12     6     7   ar
    13     7     8   ar
    14     8     9   ar
    15     9    10    2
    16    10    11    1
    17    11    12    2
    18    12    15    1
    19    15    16   ar
    20    16    17    1
    21    16    18   ar
    22    18    19   ar
    23    19    20   ar
    24    20    21   ar
    25    21    22    1
    26    22    23    1
    27    22    24    1
    28    22    25    1
    29    12    13    1
    30    13    14    2
    31    14     2    1
    32     9     4   ar
    33    14    10    1
    34    31    26   ar
    35    21    15   ar
