@<TRIPOS>MOLECULE
*****
 39 45 0 0 0
SMALL
GASTEIGER

@<TRIPOS>ATOM
      1 C          59.4100   94.9084   -3.6051 C.3     1  UNL1        0.0261
      2 C          59.4172   96.4077   -3.5587 C.3     1  UNL1        0.0020
      3 C          58.7078   95.6277   -2.4918 C.3     1  UNL1        0.0020
      4 C          60.2113   94.6826   -4.8528 C.3     1  UNL1        0.1095
      5 C          59.5158   94.3682   -6.1442 C.3     1  UNL1        0.1598
      6 O          60.3171   94.1425   -7.3920 O.3     1  UNL1       -0.3508
      7 C          61.8138   94.2311   -7.3485 C.3     1  UNL1        0.1598
      8 C          62.5093   94.5455   -6.0572 C.3     1  UNL1        0.1091
      9 N          61.7080   94.7713   -4.8094 N.3     1  UNL1       -0.1533
     10 C          64.0060   94.6342   -6.0137 C.3     1  UNL1        0.0189
     11 C          65.2612   95.4530   -6.0764 C.3     1  UNL1        0.0015
     12 C          65.3433   93.9688   -5.8755 C.3     1  UNL1        0.0015
     13 S          62.4035   95.0857   -3.5180 S.O2    1  UNL1        0.0634
     14 O          62.4975   96.5233   -3.1005 O.2     1  UNL1       -0.1528
     15 O          62.6669   93.6245   -3.3041 O.2     1  UNL1       -0.1528
     16 C          63.0990   95.4000   -2.2268 C.ar    1  UNL1        0.1223
     17 C          64.2697   94.5730   -1.7847 C.ar    1  UNL1        0.0208
     18 C          64.9652   94.8874   -0.4934 C.ar    1  UNL1        0.0128
     19 C          64.4900   96.0288    0.3559 C.ar    1  UNL1        0.0578
     20 CL         65.1854   96.3431    1.6471 Cl      1  UNL1       -0.0822
     21 C          63.3192   96.8558   -0.0862 C.ar    1  UNL1        0.0128
     22 C          62.6237   96.5415   -1.3775 C.ar    1  UNL1        0.0208
     23 C          59.1244   93.4876   -3.2181 C.3     1  UNL1        0.0867
     24 O          57.0167   92.8509   -1.8391 O.2     1  UNL1       -0.2749
     25 C          58.4777   93.1850   -1.8990 C.2     1  UNL1        0.2256
     26 N          59.2921   93.2166   -0.6397 N.am    1  UNL1       -0.2827
     27 C          60.7553   93.5326   -0.5437 C.3     1  UNL1        0.0767
     28 C          61.1538   93.4490    0.9000 C.3     1  UNL1        0.0216
     29 C          59.9369   93.0814    1.6962 C.3     1  UNL1        0.0216
     30 C          58.7863   92.9378    0.7446 C.3     1  UNL1        0.0767
     31 C          57.8331   92.8643   -0.4239 C.3     1  UNL1        0.0358
     32 C          58.4799   93.1669   -1.7430 C.3     1  UNL1        0.0608
     33 C          59.9409   93.5010   -1.8029 C.3     1  UNL1        0.0358
     34 N          57.6655   93.1353   -3.0023 N.3     1  UNL1       -0.2738
     35 C          56.6516   94.2087   -3.2669 C.3     1  UNL1        0.0720
     36 C          55.8372   94.1771   -4.5262 C.3     1  UNL1        0.0174
     37 C          56.0366   93.0722   -5.5209 C.3     1  UNL1        0.0029
     38 C          57.0505   91.9988   -5.2563 C.3     1  UNL1        0.0174
     39 C          57.8649   92.0304   -3.9970 C.3     1  UNL1        0.0720
@<TRIPOS>BOND
     1    24    25    2
     2    25    23    1
     3    23     1    1
     4     4     1    1
     5     4     5    1
     6     5     6    1
     7     6     7    1
     8     7     8    1
     9     8    10    1
    10    10    11    1
    11    11    12    1
    12     8     9    1
    13     9    13    1
    14    13    14    2
    15    13    15    2
    16    13    16    1
    17    16    17   ar
    18    17    18   ar
    19    18    19   ar
    20    19    20    1
    21    19    21   ar
    22    21    22   ar
    23     1     2    1
    24     2     3    1
    25    25    26   am
    26    26    27    1
    27    27    28    1
    28    28    29    1
    29    29    30    1
    30    30    31    1
    31    31    32    1
    32    32    34    1
    33    34    35    1
    34    35    36    1
    35    36    37    1
    36    37    38    1
    37    38    39    1
    38    32    33    1
    39     3     1    1
    40    30    26    1
    41    39    34    1
    42     9     4    1
    43    22    16   ar
    44    33    27    1
    45    12    10    1
@<TRIPOS>MOLECULE
*****
 39 45 0 0 0
SMALL
GASTEIGER

@<TRIPOS>ATOM
      1 C          59.4744   95.4659   -3.0726 C.3     1  UNL1        0.0261
      2 C          60.0323   96.8560   -2.9908 C.3     1  UNL1        0.0020
      3 C          58.9918   96.4065   -2.0084 C.3     1  UNL1        0.0020
      4 C          60.2437   94.9455   -4.2504 C.3     1  UNL1        0.1095
      5 C          59.5750   94.8217   -5.5875 C.3     1  UNL1        0.1598
      6 O          60.3441   94.3013   -6.7654 O.3     1  UNL1       -0.3508
      7 C          61.7820   93.9047   -6.6064 C.3     1  UNL1        0.1598
      8 C          62.4507   94.0285   -5.2694 C.3     1  UNL1        0.1091
      9 N          61.6815   94.5489   -4.0914 N.3     1  UNL1       -0.1533
     10 C          63.8885   93.6320   -5.1103 C.3     1  UNL1        0.0189
     11 C          65.3465   93.9783   -5.1756 C.3     1  UNL1        0.0015
     12 C          64.9209   92.5985   -4.7694 C.3     1  UNL1        0.0015
     13 S          62.3502   94.6728   -2.7544 S.O2    1  UNL1        0.0634
     14 O          62.9472   95.9985   -2.3856 O.2     1  UNL1       -0.1528
     15 O          62.0296   93.2370   -2.4611 O.2     1  UNL1       -0.1528
     16 C          63.0188   94.7966   -1.4174 C.ar    1  UNL1        0.1223
     17 C          62.6134   95.8903   -0.4744 C.ar    1  UNL1        0.0208
     18 C          63.2821   96.0141    0.8625 C.ar    1  UNL1        0.0128
     19 C          64.3562   95.0441    1.2565 C.ar    1  UNL1        0.0578
     20 CL         65.0249   95.1679    2.5935 Cl      1  UNL1       -0.0822
     21 C          64.7617   93.9503    0.3135 C.ar    1  UNL1        0.0128
     22 C          64.0930   93.8265   -1.0234 C.ar    1  UNL1        0.0208
     23 C          58.6494   94.2568   -2.7452 C.3     1  UNL1        0.0867
     24 O          56.8962   94.0554   -0.8386 O.2     1  UNL1       -0.2749
     25 C          57.2424   94.4200   -2.2517 C.2     1  UNL1        0.2256
     26 N          56.1815   94.9479   -3.1714 N.am    1  UNL1       -0.2827
     27 C          56.3768   95.3524   -4.6026 C.3     1  UNL1        0.0767
     28 C          55.0551   95.8185   -5.1370 C.3     1  UNL1        0.0216
     29 C          54.0428   95.7022   -4.0362 C.3     1  UNL1        0.0216
     30 C          54.7390   95.1642   -2.8214 C.3     1  UNL1        0.0767
     31 C          55.6845   94.6230   -1.7761 C.3     1  UNL1        0.0358
     32 C          57.0916   94.4598   -2.2698 C.3     1  UNL1        0.0608
     33 C          57.4377   94.8244   -3.6829 C.3     1  UNL1        0.0358
     34 N          58.1524   93.9318   -1.3501 N.3     1  UNL1       -0.2738
     35 C          58.6050   94.7517   -0.1782 C.3     1  UNL1        0.0720
     36 C          59.6659   94.2238    0.7415 C.3     1  UNL1        0.0174
     37 C          60.2742   92.8760    0.4894 C.3     1  UNL1        0.0029
     38 C          59.8217   92.0562   -0.6823 C.3     1  UNL1        0.0174
     39 C          58.7607   92.5841   -1.6021 C.3     1  UNL1        0.0720
@<TRIPOS>BOND
     1    24    25    2
     2    25    23    1
     3    23     1    1
     4     4     1    1
     5     4     5    1
     6     5     6    1
     7     6     7    1
     8     7     8    1
     9     8    10    1
    10    10    11    1
    11    11    12    1
    12     8     9    1
    13     9    13    1
    14    13    14    2
    15    13    15    2
    16    13    16    1
    17    16    17   ar
    18    17    18   ar
    19    18    19   ar
    20    19    20    1
    21    19    21   ar
    22    21    22   ar
    23     1     2    1
    24     2     3    1
    25    25    26   am
    26    26    27    1
    27    27    28    1
    28    28    29    1
    29    29    30    1
    30    30    31    1
    31    31    32    1
    32    32    34    1
    33    34    35    1
    34    35    36    1
    35    36    37    1
    36    37    38    1
    37    38    39    1
    38    32    33    1
    39     3     1    1
    40    30    26    1
    41    39    34    1
    42     9     4    1
    43    22    16   ar
    44    33    27    1
    45    12    10    1
@<TRIPOS>MOLECULE
*****
 39 45 0 0 0
SMALL
GASTEIGER

@<TRIPOS>ATOM
      1 C          59.4141   94.1992   -2.1368 C.3     1  UNL1        0.0261
      2 C          59.5311   92.7283   -1.8667 C.3     1  UNL1        0.0020
      3 C          58.9192   93.2090   -3.1490 C.3     1  UNL1        0.0020
      4 C          60.0231   94.7441   -0.8789 C.3     1  UNL1        0.1095
      5 C          59.1459   95.1095    0.2818 C.3     1  UNL1        0.1598
      6 O          59.7548   95.6544    1.5397 O.3     1  UNL1       -0.3508
      7 C          61.2408   95.8340    1.6369 C.3     1  UNL1        0.1598
      8 C          62.1180   95.4686    0.4763 C.3     1  UNL1        0.1091
      9 N          61.5090   94.9237   -0.7817 N.3     1  UNL1       -0.1533
     10 C          63.6039   95.6482    0.5734 C.3     1  UNL1        0.0189
     11 C          64.9708   95.0701    0.7912 C.3     1  UNL1        0.0015
     12 C          64.8110   96.5374    0.5240 C.3     1  UNL1        0.0015
     13 S          62.3862   94.5583   -1.9424 S.O2    1  UNL1        0.0634
     14 O          62.6661   93.1045   -2.1834 O.2     1  UNL1       -0.1528
     15 O          62.5356   96.0107   -2.2866 O.2     1  UNL1       -0.1528
     16 C          63.2633   94.1930   -3.1030 C.ar    1  UNL1        0.1223
     17 C          64.2767   95.1732   -3.6151 C.ar    1  UNL1        0.0208
     18 C          65.1538   94.8079   -4.7757 C.ar    1  UNL1        0.0128
     19 C          65.0176   93.4622   -5.4243 C.ar    1  UNL1        0.0578
     20 CL         65.8947   93.0969   -6.5850 Cl      1  UNL1       -0.0822
     21 C          64.0042   92.4820   -4.9123 C.ar    1  UNL1        0.0128
     22 C          63.1271   92.8473   -3.7516 C.ar    1  UNL1        0.0208
     23 C          59.0855   95.4807   -2.8436 C.3     1  UNL1        0.0867
     24 O          57.8649   95.7675   -5.1191 O.2     1  UNL1       -0.2749
     25 C          57.8133   95.5989   -3.6295 C.2     1  UNL1        0.2256
     26 N          56.4896   95.5484   -2.9258 N.am    1  UNL1       -0.2827
     27 C          56.2817   95.3847   -1.4493 C.3     1  UNL1        0.0767
     28 C          54.8050   95.3879   -1.1861 C.3     1  UNL1        0.0216
     29 C          54.1002   95.5536   -2.4998 C.3     1  UNL1        0.0216
     30 C          55.1414   95.6527   -3.5750 C.3     1  UNL1        0.0767
     31 C          56.3848   95.7221   -4.4286 C.3     1  UNL1        0.0358
     32 C          57.6569   95.6039   -3.6426 C.3     1  UNL1        0.0608
     33 C          57.6054   95.4352   -2.1531 C.3     1  UNL1        0.0358
     34 N          58.9806   95.6543   -4.3463 N.3     1  UNL1       -0.2738
     35 C          59.9128   96.8054   -4.1091 C.3     1  UNL1        0.0720
     36 C          61.2365   96.8559   -4.8128 C.3     1  UNL1        0.0174
     37 C          61.6281   95.7553   -5.7538 C.3     1  UNL1        0.0029
     38 C          60.6961   94.6043   -5.9910 C.3     1  UNL1        0.0174
     39 C          59.3723   94.5537   -5.2872 C.3     1  UNL1        0.0720
@<TRIPOS>BOND
     1    24    25    2
     2    25    23    1
     3    23     1    1
     4     4     1    1
     5     4     5    1
     6     5     6    1
     7     6     7    1
     8     7     8    1
     9     8    10    1
    10    10    11    1
    11    11    12    1
    12     8     9    1
    13     9    13    1
    14    13    14    2
    15    13    15    2
    16    13    16    1
    17    16    17   ar
    18    17    18   ar
    19    18    19   ar
    20    19    20    1
    21    19    21   ar
    22    21    22   ar
    23     1     2    1
    24     2     3    1
    25    25    26   am
    26    26    27    1
    27    27    28    1
    28    28    29    1
    29    29    30    1
    30    30    31    1
    31    31    32    1
    32    32    34    1
    33    34    35    1
    34    35    36    1
    35    36    37    1
    36    37    38    1
    37    38    39    1
    38    32    33    1
    39     3     1    1
    40    30    26    1
    41    39    34    1
    42     9     4    1
    43    22    16   ar
    44    33    27    1
    45    12    10    1
@<TRIPOS>MOLECULE
*****
 39 45 0 0 0
SMALL
GASTEIGER

@<TRIPOS>ATOM
      1 C          59.0307   94.5675   -3.2969 C.3     1  UNL1        0.0261
      2 C          59.3014   93.1725   -3.7774 C.3     1  UNL1        0.0020
      3 C          58.2013   93.4253   -2.7896 C.3     1  UNL1        0.0020
      4 C          60.0808   95.3154   -4.0636 C.3     1  UNL1        0.1095
      5 C          59.7245   96.0025   -5.3486 C.3     1  UNL1        0.1598
      6 O          60.7746   96.7504   -6.1154 O.3     1  UNL1       -0.3508
      7 C          62.1809   96.8112   -5.5973 C.3     1  UNL1        0.1598
      8 C          62.5373   96.1241   -4.3124 C.3     1  UNL1        0.1091
      9 N          61.4871   95.3762   -3.5456 N.3     1  UNL1       -0.1533
     10 C          63.9436   96.1848   -3.7944 C.3     1  UNL1        0.0189
     11 C          65.4121   95.9518   -3.9922 C.3     1  UNL1        0.0015
     12 C          64.9109   96.5231   -2.6989 C.3     1  UNL1        0.0015
     13 S          61.8434   94.6890   -2.2607 S.O2    1  UNL1        0.0634
     14 O          62.1170   93.2148   -2.3027 O.2     1  UNL1       -0.1528
     15 O          61.7231   95.9934   -1.5298 O.2     1  UNL1       -0.1528
     16 C          62.1998   94.0019   -0.9759 C.ar    1  UNL1        0.1223
     17 C          63.2350   94.5980   -0.0686 C.ar    1  UNL1        0.0208
     18 C          63.5913   93.9109    1.2163 C.ar    1  UNL1        0.0128
     19 C          62.9124   92.6277    1.5939 C.ar    1  UNL1        0.0578
     20 CL         63.2687   91.9406    2.8788 Cl      1  UNL1       -0.0822
     21 C          61.8772   92.0317    0.6866 C.ar    1  UNL1        0.0128
     22 C          61.5209   92.7188   -0.5982 C.ar    1  UNL1        0.0208
     23 C          58.3952   95.7026   -2.5502 C.3     1  UNL1        0.0867
     24 O          56.4355   95.5984   -0.8477 O.2     1  UNL1       -0.2749
     25 C          56.9230   95.6811   -2.2638 C.2     1  UNL1        0.2256
     26 N          55.9382   95.7423   -3.3936 N.am    1  UNL1       -0.2827
     27 C          56.2747   95.8269   -4.8530 C.3     1  UNL1        0.0767
     28 C          54.9885   95.8666   -5.6237 C.3     1  UNL1        0.0216
     29 C          53.8570   95.8064   -4.6407 C.3     1  UNL1        0.0216
     30 C          54.4440   95.7296   -3.2625 C.3     1  UNL1        0.0767
     31 C          55.2998   95.6616   -2.0206 C.3     1  UNL1        0.0358
     32 C          56.7720   95.6831   -2.3070 C.3     1  UNL1        0.0608
     33 C          57.2595   95.7657   -3.7231 C.3     1  UNL1        0.0358
     34 N          57.7568   95.6218   -1.1772 N.3     1  UNL1       -0.2738
     35 C          57.9924   94.3273   -0.4569 C.3     1  UNL1        0.0720
     36 C          58.9772   94.2661    0.6729 C.3     1  UNL1        0.0174
     37 C          59.7264   95.4994    1.0825 C.3     1  UNL1        0.0029
     38 C          59.4908   96.7939    0.3622 C.3     1  UNL1        0.0174
     39 C          58.5060   96.8551   -0.7677 C.3     1  UNL1        0.0720
@<TRIPOS>BOND
     1    24    25    2
     2    25    23    1
     3    23     1    1
     4     4     1    1
     5     4     5    1
     6     5     6    1
     7     6     7    1
     8     7     8    1
     9     8    10    1
    10    10    11    1
    11    11    12    1
    12     8     9    1
    13     9    13    1
    14    13    14    2
    15    13    15    2
    16    13    16    1
    17    16    17   ar
    18    17    18   ar
    19    18    19   ar
    20    19    20    1
    21    19    21   ar
    22    21    22   ar
    23     1     2    1
    24     2     3    1
    25    25    26   am
    26    26    27    1
    27    27    28    1
    28    28    29    1
    29    29    30    1
    30    30    31    1
    31    31    32    1
    32    32    34    1
    33    34    35    1
    34    35    36    1
    35    36    37    1
    36    37    38    1
    37    38    39    1
    38    32    33    1
    39     3     1    1
    40    30    26    1
    41    39    34    1
    42     9     4    1
    43    22    16   ar
    44    33    27    1
    45    12    10    1
@<TRIPOS>MOLECULE
*****
 39 45 0 0 0
SMALL
GASTEIGER

@<TRIPOS>ATOM
      1 C          61.4440   88.9443   11.2626 C.3     1  UNL1        0.0261
      2 C          60.5717   89.6377   12.2669 C.3     1  UNL1        0.0020
      3 C          60.1939   88.2787   11.7568 C.3     1  UNL1        0.0020
      4 C          62.5210   89.9752   11.0974 C.3     1  UNL1        0.1095
      5 C          62.5913   90.7915    9.8408 C.3     1  UNL1        0.1598
      6 O          63.6683   91.8224    9.6754 O.3     1  UNL1       -0.3508
      7 C          64.6749   92.0371   10.7666 C.3     1  UNL1        0.1598
      8 C          64.6046   91.2209   12.0231 C.3     1  UNL1        0.1091
      9 N          63.5275   90.1900   12.1884 N.3     1  UNL1       -0.1533
     10 C          65.6111   91.4356   13.1142 C.3     1  UNL1        0.0189
     11 C          66.9274   91.9858   13.5775 C.3     1  UNL1        0.0015
     12 C          66.0382   91.2571   14.5411 C.3     1  UNL1        0.0015
     13 S          63.4572   89.3737   13.4450 S.O2    1  UNL1        0.0634
     14 O          63.9464   87.9567   13.3928 O.2     1  UNL1       -0.1528
     15 O          62.8656   90.5447   14.1725 O.2     1  UNL1       -0.1528
     16 C          63.3868   88.5576   14.7015 C.ar    1  UNL1        0.1223
     17 C          62.8508   89.1673   15.9629 C.ar    1  UNL1        0.0208
     18 C          62.7805   88.3511   17.2194 C.ar    1  UNL1        0.0128
     19 C          63.2461   86.9252   17.2146 C.ar    1  UNL1        0.0578
     20 CL         63.1757   86.1091   18.4712 Cl      1  UNL1       -0.0822
     21 C          63.7821   86.3156   15.9533 C.ar    1  UNL1        0.0128
     22 C          63.8524   87.1317   14.6967 C.ar    1  UNL1        0.0208
     23 C          61.9420   87.8930   10.3158 C.3     1  UNL1        0.0867
     24 O          60.8663   85.7805    9.2529 O.2     1  UNL1       -0.2749
     25 C          61.0041   87.2724    9.3233 C.2     1  UNL1        0.2256
     26 N          60.2039   88.1438    8.4012 N.am    1  UNL1       -0.2827
     27 C          60.2360   89.6428    8.3557 C.3     1  UNL1        0.0767
     28 C          59.2830   90.0946    7.2890 C.3     1  UNL1        0.0216
     29 C          58.6619   88.8749    6.6753 C.3     1  UNL1        0.0216
     30 C          59.2311   87.6693    7.3627 C.3     1  UNL1        0.0767
     31 C          59.9605   86.6587    8.2149 C.3     1  UNL1        0.0358
     32 C          60.8984   87.2794    9.2074 C.3     1  UNL1        0.0608
     33 C          61.0362   88.7714    9.2778 C.3     1  UNL1        0.0358
     34 N          61.6986   86.4080   10.1295 N.3     1  UNL1       -0.2738
     35 C          62.9189   85.6992    9.6208 C.3     1  UNL1        0.0720
     36 C          63.7191   84.8278   10.5429 C.3     1  UNL1        0.0174
     37 C          63.2991   84.6651   11.9737 C.3     1  UNL1        0.0029
     38 C          62.0789   85.3738   12.4824 C.3     1  UNL1        0.0174
     39 C          61.2786   86.2453   11.5603 C.3     1  UNL1        0.0720
@<TRIPOS>BOND
     1    24    25    2
     2    25    23    1
     3    23     1    1
     4     4     1    1
     5     4     5    1
     6     5     6    1
     7     6     7    1
     8     7     8    1
     9     8    10    1
    10    10    11    1
    11    11    12    1
    12     8     9    1
    13     9    13    1
    14    13    14    2
    15    13    15    2
    16    13    16    1
    17    16    17   ar
    18    17    18   ar
    19    18    19   ar
    20    19    20    1
    21    19    21   ar
    22    21    22   ar
    23     1     2    1
    24     2     3    1
    25    25    26   am
    26    26    27    1
    27    27    28    1
    28    28    29    1
    29    29    30    1
    30    30    31    1
    31    31    32    1
    32    32    34    1
    33    34    35    1
    34    35    36    1
    35    36    37    1
    36    37    38    1
    37    38    39    1
    38    32    33    1
    39     3     1    1
    40    30    26    1
    41    39    34    1
    42     9     4    1
    43    22    16   ar
    44    33    27    1
    45    12    10    1
@<TRIPOS>MOLECULE
*****
 39 45 0 0 0
SMALL
GASTEIGER

@<TRIPOS>ATOM
      1 C          63.9598   85.1821   13.3108 C.3     1  UNL1        0.0261
      2 C          65.3782   85.2539   12.8280 C.3     1  UNL1        0.0020
      3 C          64.6940   83.9247   12.9503 C.3     1  UNL1        0.0020
      4 C          63.6851   86.6403   13.5301 C.3     1  UNL1        0.1095
      5 C          64.0826   87.2925   14.8212 C.3     1  UNL1        0.1598
      6 O          63.8080   88.7507   15.0405 O.3     1  UNL1       -0.3508
      7 C          63.1360   89.5568   13.9688 C.3     1  UNL1        0.1598
      8 C          62.7386   88.9048   12.6777 C.3     1  UNL1        0.1091
      9 N          63.0132   87.4464   12.4584 N.3     1  UNL1       -0.1533
     10 C          62.0666   89.7108   11.6060 C.3     1  UNL1        0.0189
     11 C          60.8301   90.3418   11.0378 C.3     1  UNL1        0.0015
     12 C          62.1392   90.4760   10.3179 C.3     1  UNL1        0.0015
     13 S          62.6157   86.7943   11.1674 S.O2    1  UNL1        0.0634
     14 O          63.5690   86.8798   10.0124 O.2     1  UNL1       -0.1528
     15 O          61.3246   86.3506   11.7889 O.2     1  UNL1       -0.1528
     16 C          62.2183   86.1422    9.8764 C.ar    1  UNL1        0.1223
     17 C          63.1353   85.1509    9.2233 C.ar    1  UNL1        0.0208
     18 C          62.7378   84.4988    7.9323 C.ar    1  UNL1        0.0128
     19 C          61.4233   84.8379    7.2943 C.ar    1  UNL1        0.0578
     20 CL         61.0259   84.1858    6.0033 Cl      1  UNL1       -0.0822
     21 C          60.5063   85.8292    7.9473 C.ar    1  UNL1        0.0128
     22 C          60.9038   86.4813    9.2383 C.ar    1  UNL1        0.0208
     23 C          62.6369   84.6037   13.7175 C.3     1  UNL1        0.0867
     24 O          62.3910   82.7424   15.5132 O.2     1  UNL1       -0.2749
     25 C          62.5320   83.1512   14.0770 C.2     1  UNL1        0.2256
     26 N          62.5681   82.1076   13.0002 N.am    1  UNL1       -0.2827
     27 C          62.7042   82.3636   11.5284 C.3     1  UNL1        0.0767
     28 C          62.6946   81.0389   10.8248 C.3     1  UNL1        0.0216
     29 C          62.5527   79.9642   11.8615 C.3     1  UNL1        0.0216
     30 C          62.4744   80.6247   13.2060 C.3     1  UNL1        0.0767
     31 C          62.4221   81.5459   14.4011 C.3     1  UNL1        0.0358
     32 C          62.5271   82.9984   14.0415 C.3     1  UNL1        0.0608
     33 C          62.6681   83.4072   12.6052 C.3     1  UNL1        0.0358
     34 N          62.4909   84.0420   15.1183 N.3     1  UNL1       -0.2738
     35 C          63.6739   84.2289   16.0216 C.3     1  UNL1        0.0720
     36 C          63.6378   85.2726   17.0984 C.3     1  UNL1        0.0174
     37 C          62.4188   86.1293   17.2720 C.3     1  UNL1        0.0029
     38 C          61.2359   85.9424   16.3687 C.3     1  UNL1        0.0174
     39 C          61.2720   84.8987   15.2919 C.3     1  UNL1        0.0720
@<TRIPOS>BOND
     1    24    25    2
     2    25    23    1
     3    23     1    1
     4     4     1    1
     5     4     5    1
     6     5     6    1
     7     6     7    1
     8     7     8    1
     9     8    10    1
    10    10    11    1
    11    11    12    1
    12     8     9    1
    13     9    13    1
    14    13    14    2
    15    13    15    2
    16    13    16    1
    17    16    17   ar
    18    17    18   ar
    19    18    19   ar
    20    19    20    1
    21    19    21   ar
    22    21    22   ar
    23     1     2    1
    24     2     3    1
    25    25    26   am
    26    26    27    1
    27    27    28    1
    28    28    29    1
    29    29    30    1
    30    30    31    1
    31    31    32    1
    32    32    34    1
    33    34    35    1
    34    35    36    1
    35    36    37    1
    36    37    38    1
    37    38    39    1
    38    32    33    1
    39     3     1    1
    40    30    26    1
    41    39    34    1
    42     9     4    1
    43    22    16   ar
    44    33    27    1
    45    12    10    1
