@<TRIPOS>MOLECULE
*****
 9 9 0 0 0
SMALL
GASTEIGER

@<TRIPOS>ATOM
      1 N          65.2841   94.8718   10.4036 N.pl3   1  UNL1       -0.3278
      2 C          66.5429   94.0849   10.1884 C.ar    1  UNL1        0.2089
      3 N          66.7069   92.6089   10.3993 N.ar    1  UNL1       -0.1907
      4 C          68.1240   92.2476   10.0658 C.ar    1  UNL1        0.2217
      5 N          68.8359   93.5003    9.6488 N.ar    1  UNL1       -0.1477
      6 N          67.8587   94.6358    9.7246 N.ar    1  UNL1       -0.2465
      7 H          64.4664   94.4180   10.7112 H       1  UNL1        0.1451
      8 H          65.2756   95.8421   10.2372 H       1  UNL1        0.1451
      9 H          68.0477   95.5774    9.5079 H       1  UNL1        0.1918
@<TRIPOS>BOND
     1     1     2    1
     2     2     3   ar
     3     3     4   ar
     4     4     5   ar
     5     5     6   ar
     6     6     2   ar
     7     1     7    1
     8     1     8    1
     9     6     9    1
@<TRIPOS>MOLECULE
*****
 9 9 0 0 0
SMALL
GASTEIGER

@<TRIPOS>ATOM
      1 N          60.1447   80.6104   14.1784 N.pl3   1  UNL1       -0.3278
      2 C          61.5624   81.0811   14.0415 C.ar    1  UNL1        0.2089
      3 N          62.5203   80.6897   12.9556 N.ar    1  UNL1       -0.1907
      4 C          63.8210   81.3924   13.2095 C.ar    1  UNL1        0.2217
      5 N          63.6669   82.2181   14.4522 N.ar    1  UNL1       -0.1477
      6 N          62.2710   82.0257   14.9665 N.ar    1  UNL1       -0.2465
      7 H          59.7671   79.9867   13.5169 H       1  UNL1        0.1451
      8 H          59.5919   80.9253   14.9297 H       1  UNL1        0.1451
      9 H          61.8873   82.4456   15.7700 H       1  UNL1        0.1918
@<TRIPOS>BOND
     1     1     2    1
     2     2     3   ar
     3     3     4   ar
     4     4     5   ar
     5     5     6   ar
     6     6     2   ar
     7     1     7    1
     8     1     8    1
     9     6     9    1
@<TRIPOS>MOLECULE
*****
 9 9 0 0 0
SMALL
GASTEIGER

@<TRIPOS>ATOM
      1 N          47.8262   74.0839    7.9557 N.pl3   1  UNL1       -0.3278
      2 C          46.9367   75.2080    8.3976 C.ar    1  UNL1        0.2089
      3 N          46.9539   75.8688    9.7441 N.ar    1  UNL1       -0.1907
      4 C          45.9017   76.9378    9.7493 C.ar    1  UNL1        0.2217
      5 N          45.2340   76.9376    8.4061 N.ar    1  UNL1       -0.1477
      6 N          45.8737   75.8685    7.5707 N.ar    1  UNL1       -0.2465
      7 H          48.4976   73.7152    8.5742 H       1  UNL1        0.1451
      8 H          47.7386   73.7149    7.0472 H       1  UNL1        0.1451
      9 H          45.6374   75.6404    6.6426 H       1  UNL1        0.1918
@<TRIPOS>BOND
     1     1     2    1
     2     2     3   ar
     3     3     4   ar
     4     4     5   ar
     5     5     6   ar
     6     6     2   ar
     7     1     7    1
     8     1     8    1
     9     6     9    1
@<TRIPOS>MOLECULE
*****
 9 9 0 0 0
SMALL
GASTEIGER

@<TRIPOS>ATOM
      1 N          64.7441   84.1929   14.9929 N.pl3   1  UNL1       -0.3278
      2 C          63.8965   83.0435   14.5341 C.ar    1  UNL1        0.2089
      3 N          64.0968   82.2458   13.2797 N.ar    1  UNL1       -0.1907
      4 C          63.0239   81.1993   13.2195 C.ar    1  UNL1        0.2217
      5 N          62.1604   81.3502   14.4367 N.ar    1  UNL1       -0.1477
      6 N          62.6997   82.4900   15.2492 N.ar    1  UNL1       -0.2465
      7 H          65.5131   84.4843   14.4516 H       1  UNL1        0.1451
      8 H          64.5315   84.6558   15.8353 H       1  UNL1        0.1451
      9 H          62.3326   82.8173   16.1020 H       1  UNL1        0.1918
@<TRIPOS>BOND
     1     1     2    1
     2     2     3   ar
     3     3     4   ar
     4     4     5   ar
     5     5     6   ar
     6     6     2   ar
     7     1     7    1
     8     1     8    1
     9     6     9    1
@<TRIPOS>MOLECULE
*****
 9 9 0 0 0
SMALL
GASTEIGER

@<TRIPOS>ATOM
      1 N          64.1343   86.6932   14.6706 N.pl3   1  UNL1       -0.3278
      2 C          63.7623   85.2473   14.8158 C.ar    1  UNL1        0.2089
      3 N          62.3863   84.6710   14.6600 N.ar    1  UNL1       -0.1907
      4 C          62.4746   83.1914   14.8902 C.ar    1  UNL1        0.2217
      5 N          63.9053   82.8533   15.1884 N.ar    1  UNL1       -0.1477
      6 N          64.7011   84.1239   15.1424 N.ar    1  UNL1       -0.2465
      7 H          63.4432   87.3599   14.4535 H       1  UNL1        0.1451
      8 H          65.0696   86.9755   14.7925 H       1  UNL1        0.1451
      9 H          65.6696   84.2061   15.2991 H       1  UNL1        0.1918
@<TRIPOS>BOND
     1     1     2    1
     2     2     3   ar
     3     3     4   ar
     4     4     5   ar
     5     5     6   ar
     6     6     2   ar
     7     1     7    1
     8     1     8    1
     9     6     9    1
@<TRIPOS>MOLECULE
*****
 9 9 0 0 0
SMALL
GASTEIGER

@<TRIPOS>ATOM
      1 N          68.8913   91.6335   12.9875 N.pl3   1  UNL1       -0.3278
      2 C          67.8673   92.0642   13.9954 C.ar    1  UNL1        0.2089
      3 N          68.1174   92.3216   15.4518 N.ar    1  UNL1       -0.1907
      4 C          66.8180   92.7296   16.0804 C.ar    1  UNL1        0.2217
      5 N          65.7647   92.7243   15.0124 N.ar    1  UNL1       -0.1477
      6 N          66.4132   92.3131   13.7238 N.ar    1  UNL1       -0.2465
      7 H          69.8261   91.4952   13.2638 H       1  UNL1        0.1451
      8 H          68.6287   91.4892   12.0497 H       1  UNL1        0.1451
      9 H          65.9634   92.2225   12.8528 H       1  UNL1        0.1918
@<TRIPOS>BOND
     1     1     2    1
     2     2     3   ar
     3     3     4   ar
     4     4     5   ar
     5     5     6   ar
     6     6     2   ar
     7     1     7    1
     8     1     8    1
     9     6     9    1
@<TRIPOS>MOLECULE
*****
 9 9 0 0 0
SMALL
GASTEIGER

@<TRIPOS>ATOM
      1 N          67.8415   96.3080    8.6284 N.pl3   1  UNL1       -0.3278
      2 C          67.4685   94.9774    9.2119 C.ar    1  UNL1        0.2089
      3 N          68.4046   93.8340    9.4694 N.ar    1  UNL1       -0.1907
      4 C          67.6086   92.7065   10.0570 C.ar    1  UNL1        0.2217
      5 N          66.1805   93.1532   10.1627 N.ar    1  UNL1       -0.1477
      6 N          66.0940   94.5567    9.6403 N.ar    1  UNL1       -0.2465
      7 H          68.7757   96.4907    8.3768 H       1  UNL1        0.1451
      8 H          67.1522   96.9985    8.4969 H       1  UNL1        0.1451
      9 H          65.2782   95.1053    9.5879 H       1  UNL1        0.1918
@<TRIPOS>BOND
     1     1     2    1
     2     2     3   ar
     3     3     4   ar
     4     4     5   ar
     5     5     6   ar
     6     6     2   ar
     7     1     7    1
     8     1     8    1
     9     6     9    1
@<TRIPOS>MOLECULE
*****
 9 9 0 0 0
SMALL
GASTEIGER

@<TRIPOS>ATOM
      1 N          70.4702   67.9899   13.5337 N.pl3   1  UNL1       -0.3278
      2 C          69.5529   68.8650   12.7320 C.ar    1  UNL1        0.2089
      3 N          69.9709   69.9884   11.8301 N.ar    1  UNL1       -0.1907
      4 C          68.7328   70.5881   11.2322 C.ar    1  UNL1        0.2217
      5 N          67.5496   69.8353   11.7645 N.ar    1  UNL1       -0.1477
      6 N          68.0564   68.7705   12.6914 N.ar    1  UNL1       -0.2465
      7 H          71.4438   68.1305   13.4942 H       1  UNL1        0.1451
      8 H          70.0986   67.2749   14.0993 H       1  UNL1        0.1451
      9 H          67.5038   68.1231   13.1862 H       1  UNL1        0.1918
@<TRIPOS>BOND
     1     1     2    1
     2     2     3   ar
     3     3     4   ar
     4     4     5   ar
     5     5     6   ar
     6     6     2   ar
     7     1     7    1
     8     1     8    1
     9     6     9    1
@<TRIPOS>MOLECULE
*****
 9 9 0 0 0
SMALL
GASTEIGER

@<TRIPOS>ATOM
      1 N          46.5122   75.3524    8.3989 N.pl3   1  UNL1       -0.3278
      2 C          45.9892   76.6842    8.8489 C.ar    1  UNL1        0.2089
      3 N          44.6127   77.2229    8.5937 N.ar    1  UNL1       -0.1907
      4 C          44.5235   78.5829    9.2202 C.ar    1  UNL1        0.2217
      5 N          45.8449   78.8848    9.8626 N.ar    1  UNL1       -0.1477
      6 N          46.7507   77.7114    9.6332 N.ar    1  UNL1       -0.2465
      7 H          45.9328   74.7437    7.8861 H       1  UNL1        0.1451
      8 H          47.4350   75.0869    8.6164 H       1  UNL1        0.1451
      9 H          47.6816   77.6297    9.9429 H       1  UNL1        0.1918
@<TRIPOS>BOND
     1     1     2    1
     2     2     3   ar
     3     3     4   ar
     4     4     5   ar
     5     5     6   ar
     6     6     2   ar
     7     1     7    1
     8     1     8    1
     9     6     9    1
