@<TRIPOS>MOLECULE
*****
 29 33 0 0 0
SMALL
GASTEIGER

@<TRIPOS>ATOM
      1 C          63.5975   90.8529   11.9535 C.ar    1  UNL1        0.1365
      2 C          62.8296   90.1472   13.0317 C.ar    1  UNL1        0.0918
      3 C          63.2174   90.3275   14.4693 C.ar    1  UNL1        0.2290
      4 N          64.3731   91.2135   14.8290 N.ar    1  UNL1       -0.1923
      5 C          65.1410   91.9192   13.7509 C.ar    1  UNL1        0.1698
      6 C          66.3171   92.8489   13.8007 C.ar    1  UNL1        0.0614
      7 C          66.6561   93.2432   12.3937 C.ar    1  UNL1        0.1238
      8 N          65.6896   92.5572   11.4744 N.ar    1  UNL1       -0.1610
      9 N          64.7532   91.7389   12.3132 N.ar    1  UNL1       -0.1985
     10 N          63.2096   90.6726   10.5158 N.pl3   1  UNL1       -0.3142
     11 H          63.8985   90.6999    9.8130 H       1  UNL1        0.1485
     12 C          61.7722   90.4506   10.1489 C.3     1  UNL1        0.1185
     13 C          59.0531   86.6468    7.6956 C.3     1  UNL1        0.1537
     14 N          60.0708   87.3553    8.5397 N.ar    1  UNL1       -0.2476
     15 C          60.1574   88.8367    8.7588 C.ar    1  UNL1        0.0941
     16 C          61.3206   89.1037    9.6673 C.ar    1  UNL1        0.0370
     17 C          61.9530   87.7873   10.0097 C.ar    1  UNL1        0.1190
     18 N          61.1805   86.7068    9.3128 N.ar    1  UNL1       -0.1679
     19 O          62.4495   89.6217   15.5475 O.3     1  UNL1       -0.4601
     20 C          63.1643   89.1001   16.7587 C.3     1  UNL1        0.2074
     21 C          63.0330   87.6562   17.1432 C.3     1  UNL1        0.0497
     22 C          62.7295   86.6086   18.1730 C.3     1  UNL1        0.0101
     23 C          63.1089   86.2030   16.7795 C.3     1  UNL1        0.0440
     24 C          63.3718   85.1297   15.7652 C.ar    1  UNL1        0.0588
     25 C          64.5531   85.2386   14.8471 C.ar    1  UNL1        0.0147
     26 C          64.8161   84.1654   13.8327 C.ar    1  UNL1        0.0028
     27 C          63.8978   82.9833   13.7363 C.ar    1  UNL1        0.0207
     28 C          62.7166   82.8743   14.6543 C.ar    1  UNL1        0.0984
     29 N          62.4536   83.9476   15.6687 N.ar    1  UNL1       -0.2482
@<TRIPOS>BOND
     1    13    14    1
     2    14    15   ar
     3    15    16   ar
     4    16    12    1
     5    12    10    1
     6    10     1    1
     7     1     2   ar
     8     2     3   ar
     9     3    19    1
    10    19    20    1
    11    21    20    1
    12    21    22    1
    13    22    23    1
    14    23    24    1
    15    24    25   ar
    16    25    26   ar
    17    26    27   ar
    18    27    28   ar
    19    28    29   ar
    20     3     4   ar
    21     4     5   ar
    22     5     6   ar
    23     6     7   ar
    24     7     8   ar
    25     8     9   ar
    26    16    17   ar
    27    17    18   ar
    28    18    14   ar
    29     9     1   ar
    30    23    21    1
    31    29    24   ar
    32     9     5   ar
    33    10    11    1
@<TRIPOS>MOLECULE
*****
 29 33 0 0 0
SMALL
GASTEIGER

@<TRIPOS>ATOM
      1 C          61.6858   87.0323   10.6041 C.ar    1  UNL1        0.1365
      2 C          62.3532   88.1957   11.2758 C.ar    1  UNL1        0.0918
      3 C          62.0882   89.5918   10.7958 C.ar    1  UNL1        0.2290
      4 N          61.1558   89.8247    9.6441 N.ar    1  UNL1       -0.1923
      5 C          60.4884   88.6613    8.9724 C.ar    1  UNL1        0.1698
      6 C          59.5280   88.5819    7.8229 C.ar    1  UNL1        0.0614
      7 C          59.1995   87.1366    7.5925 C.ar    1  UNL1        0.1238
      8 N          59.9568   86.3228    8.5996 N.ar    1  UNL1       -0.1610
      9 N          60.7534   87.2651    9.4525 N.ar    1  UNL1       -0.1985
     10 N          61.9508   85.6361   11.0841 N.pl3   1  UNL1       -0.3142
     11 H          61.5237   84.8716   10.6344 H       1  UNL1        0.1485
     12 C          62.8666   85.4048   12.2494 C.3     1  UNL1        0.1185
     13 C          62.4436   80.2906   13.4934 C.3     1  UNL1        0.1537
     14 N          62.5781   81.7802   13.6076 N.ar    1  UNL1       -0.2476
     15 C          62.6369   82.7504   12.4651 C.ar    1  UNL1        0.0941
     16 C          62.7725   84.1309   13.0358 C.ar    1  UNL1        0.0370
     17 C          62.7975   84.0140   14.5310 C.ar    1  UNL1        0.1190
     18 N          62.6774   82.5611   14.8844 N.ar    1  UNL1       -0.1679
     19 O          62.7557   90.7552   11.4675 O.3     1  UNL1       -0.4601
     20 C          63.5594   90.5405   12.7157 C.3     1  UNL1        0.2074
     21 C          64.7546   91.4024   12.9957 C.3     1  UNL1        0.0497
     22 C          65.7538   91.9629   13.9640 C.3     1  UNL1        0.0101
     23 C          65.8256   92.3349   12.5125 C.3     1  UNL1        0.0440
     24 C          66.4855   93.0880   11.3957 C.ar    1  UNL1        0.0588
     25 C          67.3599   92.3629   10.4160 C.ar    1  UNL1        0.0147
     26 C          68.0198   93.1159    9.2992 C.ar    1  UNL1        0.0028
     27 C          67.8053   94.5941    9.1619 C.ar    1  UNL1        0.0207
     28 C          66.9310   95.3193   10.1415 C.ar    1  UNL1        0.0984
     29 N          66.2711   94.5662   11.2584 N.ar    1  UNL1       -0.2482
@<TRIPOS>BOND
     1    13    14    1
     2    14    15   ar
     3    15    16   ar
     4    16    12    1
     5    12    10    1
     6    10     1    1
     7     1     2   ar
     8     2     3   ar
     9     3    19    1
    10    19    20    1
    11    21    20    1
    12    21    22    1
    13    22    23    1
    14    23    24    1
    15    24    25   ar
    16    25    26   ar
    17    26    27   ar
    18    27    28   ar
    19    28    29   ar
    20     3     4   ar
    21     4     5   ar
    22     5     6   ar
    23     6     7   ar
    24     7     8   ar
    25     8     9   ar
    26    16    17   ar
    27    17    18   ar
    28    18    14   ar
    29     9     1   ar
    30    23    21    1
    31    29    24   ar
    32     9     5   ar
    33    10    11    1
@<TRIPOS>MOLECULE
*****
 29 33 0 0 0
SMALL
GASTEIGER

@<TRIPOS>ATOM
      1 C          61.8410   86.8420   10.4792 C.ar    1  UNL1        0.1365
      2 C          62.2767   88.0586   11.2409 C.ar    1  UNL1        0.0918
      3 C          61.7318   89.4073   10.8752 C.ar    1  UNL1        0.2290
      4 N          60.7512   89.5396    9.7478 N.ar    1  UNL1       -0.1923
      5 C          60.3156   88.3230    8.9861 C.ar    1  UNL1        0.1698
      6 C          59.3696   88.1445    7.8358 C.ar    1  UNL1        0.0614
      7 C          59.3298   86.6853    7.4906 C.ar    1  UNL1        0.1238
      8 N          60.2513   85.9620    8.4276 N.ar    1  UNL1       -0.1610
      9 N          60.8605   86.9742    9.3518 N.ar    1  UNL1       -0.1985
     10 N          62.3859   85.4931   10.8450 N.pl3   1  UNL1       -0.3142
     11 H          62.4086   84.7730   10.1741 H       1  UNL1        0.1485
     12 C          62.8963   85.2416   12.2329 C.3     1  UNL1        0.1185
     13 C          62.4389   80.0292   12.9423 C.3     1  UNL1        0.1537
     14 N          62.4815   81.5060   13.2019 N.ar    1  UNL1       -0.2476
     15 C          62.7406   82.5736   12.1806 C.ar    1  UNL1        0.0941
     16 C          62.6917   83.9018   12.8757 C.ar    1  UNL1        0.0370
     17 C          62.4024   83.6552   14.3268 C.ar    1  UNL1        0.1190
     18 N          62.2725   82.1745   14.5283 N.ar    1  UNL1       -0.1679
     19 O          62.1675   90.6239   11.6369 O.3     1  UNL1       -0.4601
     20 C          63.6278   90.8928   11.8492 C.3     1  UNL1        0.2074
     21 C          64.2366   90.6993   13.2063 C.3     1  UNL1        0.0497
     22 C          65.1666   91.1578   14.2903 C.3     1  UNL1        0.0101
     23 C          64.3611   89.9056   14.4730 C.3     1  UNL1        0.0440
     24 C          63.9679   88.7246   15.3100 C.ar    1  UNL1        0.0588
     25 C          63.2206   88.9309   16.5942 C.ar    1  UNL1        0.0147
     26 C          62.8274   87.7499   17.4312 C.ar    1  UNL1        0.0028
     27 C          63.1816   86.3626   16.9841 C.ar    1  UNL1        0.0207
     28 C          63.9288   86.1563   15.6999 C.ar    1  UNL1        0.0984
     29 N          64.3220   87.3373   14.8629 N.ar    1  UNL1       -0.2482
@<TRIPOS>BOND
     1    13    14    1
     2    14    15   ar
     3    15    16   ar
     4    16    12    1
     5    12    10    1
     6    10     1    1
     7     1     2   ar
     8     2     3   ar
     9     3    19    1
    10    19    20    1
    11    21    20    1
    12    21    22    1
    13    22    23    1
    14    23    24    1
    15    24    25   ar
    16    25    26   ar
    17    26    27   ar
    18    27    28   ar
    19    28    29   ar
    20     3     4   ar
    21     4     5   ar
    22     5     6   ar
    23     6     7   ar
    24     7     8   ar
    25     8     9   ar
    26    16    17   ar
    27    17    18   ar
    28    18    14   ar
    29     9     1   ar
    30    23    21    1
    31    29    24   ar
    32     9     5   ar
    33    10    11    1
@<TRIPOS>MOLECULE
*****
 29 33 0 0 0
SMALL
GASTEIGER

@<TRIPOS>ATOM
      1 C          61.5937   87.3506   10.9456 C.ar    1  UNL1        0.1365
      2 C          62.4514   88.4371   11.5232 C.ar    1  UNL1        0.0918
      3 C          62.4475   89.8040   10.9056 C.ar    1  UNL1        0.2290
      4 N          61.5858   90.0844    9.7102 N.ar    1  UNL1       -0.1923
      5 C          60.7281   88.9979    9.1325 C.ar    1  UNL1        0.1698
      6 C          59.7827   88.9777    7.9681 C.ar    1  UNL1        0.0614
      7 C          59.2024   87.5982    7.8661 C.ar    1  UNL1        0.1238
      8 N          59.7891   86.7659    8.9675 N.ar    1  UNL1       -0.1610
      9 N          60.7320   87.6310    9.7502 N.ar    1  UNL1       -0.1985
     10 N          61.5976   85.9837   11.5633 N.pl3   1  UNL1       -0.3142
     11 H          60.7467   85.5219   11.7421 H       1  UNL1        0.1485
     12 C          62.8979   85.3204   11.9085 C.3     1  UNL1        0.1185
     13 C          62.6351   80.1293   12.8383 C.3     1  UNL1        0.1537
     14 N          62.9242   81.4491   12.1866 N.ar    1  UNL1       -0.2476
     15 C          62.5697   82.7996   12.7347 C.ar    1  UNL1        0.0941
     16 C          63.0450   83.8351   11.7592 C.ar    1  UNL1        0.0370
     17 C          63.6932   83.1246   10.6081 C.ar    1  UNL1        0.1190
     18 N          63.6186   81.6500   10.8723 N.ar    1  UNL1       -0.1679
     19 O          63.3053   90.8906   11.4833 O.3     1  UNL1       -0.4601
     20 C          64.0289   91.8385   10.5734 C.3     1  UNL1        0.2074
     21 C          65.3971   92.3323   10.9395 C.3     1  UNL1        0.0497
     22 C          66.7136   92.9283   10.5375 C.3     1  UNL1        0.0101
     23 C          66.4505   92.5915   11.9754 C.3     1  UNL1        0.0440
     24 C          66.9068   92.5468   13.4036 C.ar    1  UNL1        0.0588
     25 C          65.8993   92.5836   14.5143 C.ar    1  UNL1        0.0147
     26 C          66.3556   92.5388   15.9426 C.ar    1  UNL1        0.0028
     27 C          67.8193   92.4573   16.2601 C.ar    1  UNL1        0.0207
     28 C          68.8268   92.4205   15.1494 C.ar    1  UNL1        0.0984
     29 N          68.3705   92.4653   13.7211 N.ar    1  UNL1       -0.2482
@<TRIPOS>BOND
     1    13    14    1
     2    14    15   ar
     3    15    16   ar
     4    16    12    1
     5    12    10    1
     6    10     1    1
     7     1     2   ar
     8     2     3   ar
     9     3    19    1
    10    19    20    1
    11    21    20    1
    12    21    22    1
    13    22    23    1
    14    23    24    1
    15    24    25   ar
    16    25    26   ar
    17    26    27   ar
    18    27    28   ar
    19    28    29   ar
    20     3     4   ar
    21     4     5   ar
    22     5     6   ar
    23     6     7   ar
    24     7     8   ar
    25     8     9   ar
    26    16    17   ar
    27    17    18   ar
    28    18    14   ar
    29     9     1   ar
    30    23    21    1
    31    29    24   ar
    32     9     5   ar
    33    10    11    1
@<TRIPOS>MOLECULE
*****
 29 33 0 0 0
SMALL
GASTEIGER

@<TRIPOS>ATOM
      1 C          61.6470   88.2958   10.3243 C.ar    1  UNL1        0.1365
      2 C          62.4611   87.1550   10.8589 C.ar    1  UNL1        0.0918
      3 C          62.2983   85.7812   10.2794 C.ar    1  UNL1        0.2290
      4 N          61.3213   85.5480    9.1653 N.ar    1  UNL1       -0.1923
      5 C          60.5071   86.6888    8.6307 C.ar    1  UNL1        0.1698
      6 C          59.4733   86.7626    7.5464 C.ar    1  UNL1        0.0614
      7 C          58.9972   88.1821    7.4558 C.ar    1  UNL1        0.1238
      8 N          59.7368   88.9856    8.4841 N.ar    1  UNL1       -0.1610
      9 N          60.6700   88.0627    9.2103 N.ar    1  UNL1       -0.1985
     10 N          61.8098   89.6697   10.9039 N.pl3   1  UNL1       -0.3142
     11 H          61.3193   90.4294   10.5147 H       1  UNL1        0.1485
     12 C          62.7200   89.8861   12.0764 C.3     1  UNL1        0.1185
     13 C          66.5199   93.2654   13.4985 C.3     1  UNL1        0.1537
     14 N          65.5095   92.5164   12.6810 N.ar    1  UNL1       -0.2476
     15 C          64.6052   91.4278   13.1782 C.ar    1  UNL1        0.0941
     16 C          63.7629   90.9631   12.0274 C.ar    1  UNL1        0.0370
     17 C          64.1465   91.7646   10.8189 C.ar    1  UNL1        0.1190
     18 N          65.2260   92.7246   11.2229 N.ar    1  UNL1       -0.1679
     19 O          63.1125   84.6403   10.8140 O.3     1  UNL1       -0.4601
     20 C          62.8392   84.1027   12.1874 C.3     1  UNL1        0.2074
     21 C          63.7477   84.4585   13.3266 C.3     1  UNL1        0.0497
     22 C          64.9852   84.1950   14.1324 C.3     1  UNL1        0.0101
     23 C          64.0840   85.3384   14.4940 C.3     1  UNL1        0.0440
     24 C          63.7579   86.5063   15.3768 C.ar    1  UNL1        0.0588
     25 C          63.2268   86.2753   16.7606 C.ar    1  UNL1        0.0147
     26 C          62.9007   87.4433   17.6435 C.ar    1  UNL1        0.0028
     27 C          63.1057   88.8422   17.1426 C.ar    1  UNL1        0.0207
     28 C          63.6367   89.0733   15.7590 C.ar    1  UNL1        0.0984
     29 N          63.9628   87.9053   14.8760 N.ar    1  UNL1       -0.2482
@<TRIPOS>BOND
     1    13    14    1
     2    14    15   ar
     3    15    16   ar
     4    16    12    1
     5    12    10    1
     6    10     1    1
     7     1     2   ar
     8     2     3   ar
     9     3    19    1
    10    19    20    1
    11    21    20    1
    12    21    22    1
    13    22    23    1
    14    23    24    1
    15    24    25   ar
    16    25    26   ar
    17    26    27   ar
    18    27    28   ar
    19    28    29   ar
    20     3     4   ar
    21     4     5   ar
    22     5     6   ar
    23     6     7   ar
    24     7     8   ar
    25     8     9   ar
    26    16    17   ar
    27    17    18   ar
    28    18    14   ar
    29     9     1   ar
    30    23    21    1
    31    29    24   ar
    32     9     5   ar
    33    10    11    1
@<TRIPOS>MOLECULE
*****
 29 33 0 0 0
SMALL
GASTEIGER

@<TRIPOS>ATOM
      1 C          61.5678   86.6755   10.3758 C.ar    1  UNL1        0.1365
      2 C          62.3940   87.6911   11.1079 C.ar    1  UNL1        0.0918
      3 C          62.3056   89.1408   10.7333 C.ar    1  UNL1        0.2290
      4 N          61.3909   89.5751    9.6266 N.ar    1  UNL1       -0.1923
      5 C          60.5646   88.5595    8.8945 C.ar    1  UNL1        0.1698
      6 C          59.5814   88.6884    7.7691 C.ar    1  UNL1        0.0614
      7 C          59.0621   87.3183    7.4482 C.ar    1  UNL1        0.1238
      8 N          59.7244   86.3426    8.3752 N.ar    1  UNL1       -0.1610
      9 N          60.6531   87.1098    9.2691 N.ar    1  UNL1       -0.1985
     10 N          61.6562   85.2257   10.7504 N.pl3   1  UNL1       -0.3142
     11 H          60.8639   84.6470   10.6689 H       1  UNL1        0.1485
     12 C          62.9518   84.6577   11.2492 C.3     1  UNL1        0.1185
     13 C          63.8836   85.5220   16.3742 C.3     1  UNL1        0.1537
     14 N          63.5862   84.8350   15.0743 N.ar    1  UNL1       -0.2476
     15 C          63.4589   85.4988   13.7352 C.ar    1  UNL1        0.0941
     16 C          63.1579   84.4378   12.7186 C.ar    1  UNL1        0.0370
     17 C          63.0993   83.1182   13.4294 C.ar    1  UNL1        0.1190
     18 N          63.3640   83.3638   14.8853 N.ar    1  UNL1       -0.1679
     19 O          63.1319   90.1563   11.4654 O.3     1  UNL1       -0.4601
     20 C          63.5153   91.4394   10.7896 C.3     1  UNL1        0.2074
     21 C          64.8484   92.0665   11.0716 C.3     1  UNL1        0.0497
     22 C          66.0714   92.7898   10.5910 C.3     1  UNL1        0.0101
     23 C          65.9343   92.4294   12.0407 C.3     1  UNL1        0.0440
     24 C          66.4822   92.4308   13.4370 C.ar    1  UNL1        0.0588
     25 C          67.9396   92.1633   13.6710 C.ar    1  UNL1        0.0147
     26 C          68.4876   92.1647   15.0674 C.ar    1  UNL1        0.0028
     27 C          67.5783   92.4336   16.2296 C.ar    1  UNL1        0.0207
     28 C          66.1210   92.7011   15.9956 C.ar    1  UNL1        0.0984
     29 N          65.5730   92.6997   14.5992 N.ar    1  UNL1       -0.2482
@<TRIPOS>BOND
     1    13    14    1
     2    14    15   ar
     3    15    16   ar
     4    16    12    1
     5    12    10    1
     6    10     1    1
     7     1     2   ar
     8     2     3   ar
     9     3    19    1
    10    19    20    1
    11    21    20    1
    12    21    22    1
    13    22    23    1
    14    23    24    1
    15    24    25   ar
    16    25    26   ar
    17    26    27   ar
    18    27    28   ar
    19    28    29   ar
    20     3     4   ar
    21     4     5   ar
    22     5     6   ar
    23     6     7   ar
    24     7     8   ar
    25     8     9   ar
    26    16    17   ar
    27    17    18   ar
    28    18    14   ar
    29     9     1   ar
    30    23    21    1
    31    29    24   ar
    32     9     5   ar
    33    10    11    1
@<TRIPOS>MOLECULE
*****
 29 33 0 0 0
SMALL
GASTEIGER

@<TRIPOS>ATOM
      1 C          63.4172   90.7366   12.5109 C.ar    1  UNL1        0.1365
      2 C          63.1799   89.5276   13.3664 C.ar    1  UNL1        0.0918
      3 C          64.1419   89.1860   14.4653 C.ar    1  UNL1        0.2290
      4 N          65.3413   90.0533   14.7088 N.ar    1  UNL1       -0.1923
      5 C          65.5786   91.2624   13.8532 C.ar    1  UNL1        0.1698
      6 C          66.6647   92.2969   13.8568 C.ar    1  UNL1        0.0614
      7 C          66.3739   93.2779   12.7599 C.ar    1  UNL1        0.1238
      8 N          65.1080   92.8497   12.0786 N.ar    1  UNL1       -0.1610
      9 N          64.6165   91.6040   12.7543 N.ar    1  UNL1       -0.1985
     10 N          62.4551   91.0782   11.4119 N.pl3   1  UNL1       -0.3142
     11 H          61.7524   91.7507   11.5642 H       1  UNL1        0.1485
     12 C          62.5637   90.3952   10.0808 C.3     1  UNL1        0.1185
     13 C          58.9740   87.0022    8.2147 C.3     1  UNL1        0.1537
     14 N          60.1415   87.5767    8.9610 N.ar    1  UNL1       -0.2476
     15 C          60.5905   89.0075    8.9293 C.ar    1  UNL1        0.0941
     16 C          61.7914   89.1362    9.8187 C.ar    1  UNL1        0.0370
     17 C          62.0847   87.7850   10.4001 C.ar    1  UNL1        0.1190
     18 N          61.0649   86.8211    9.8699 N.ar    1  UNL1       -0.1679
     19 O          63.9047   87.9769   15.3209 O.3     1  UNL1       -0.4601
     20 C          64.5454   86.6683   14.9643 C.3     1  UNL1        0.2074
     21 C          63.7177   85.4186   14.9082 C.3     1  UNL1        0.0497
     22 C          62.7266   84.4874   15.5413 C.3     1  UNL1        0.0101
     23 C          63.2751   84.1853   14.1782 C.3     1  UNL1        0.0440
     24 C          63.3362   83.2987   12.9698 C.ar    1  UNL1        0.0588
     25 C          62.7141   81.9343   13.0084 C.ar    1  UNL1        0.0147
     26 C          62.7751   81.0476   11.8001 C.ar    1  UNL1        0.0028
     27 C          63.4583   81.5254   10.5531 C.ar    1  UNL1        0.0207
     28 C          64.0804   82.8897   10.5144 C.ar    1  UNL1        0.0984
     29 N          64.0194   83.7764   11.7228 N.ar    1  UNL1       -0.2482
@<TRIPOS>BOND
     1    13    14    1
     2    14    15   ar
     3    15    16   ar
     4    16    12    1
     5    12    10    1
     6    10     1    1
     7     1     2   ar
     8     2     3   ar
     9     3    19    1
    10    19    20    1
    11    21    20    1
    12    21    22    1
    13    22    23    1
    14    23    24    1
    15    24    25   ar
    16    25    26   ar
    17    26    27   ar
    18    27    28   ar
    19    28    29   ar
    20     3     4   ar
    21     4     5   ar
    22     5     6   ar
    23     6     7   ar
    24     7     8   ar
    25     8     9   ar
    26    16    17   ar
    27    17    18   ar
    28    18    14   ar
    29     9     1   ar
    30    23    21    1
    31    29    24   ar
    32     9     5   ar
    33    10    11    1
@<TRIPOS>MOLECULE
*****
 29 33 0 0 0
SMALL
GASTEIGER

@<TRIPOS>ATOM
      1 C          62.9090   87.3541   12.1495 C.ar    1  UNL1        0.1365
      2 C          63.0721   88.8300   12.3619 C.ar    1  UNL1        0.0918
      3 C          63.8365   89.3369   13.5487 C.ar    1  UNL1        0.2290
      4 N          64.4379   88.3680   14.5233 N.ar    1  UNL1       -0.1923
      5 C          64.2747   86.8921   14.3109 C.ar    1  UNL1        0.1698
      6 C          64.7516   85.7064   15.0961 C.ar    1  UNL1        0.0614
      7 C          64.2818   84.4666   14.3945 C.ar    1  UNL1        0.1238
      8 N          63.5147   84.8861   13.1757 N.ar    1  UNL1       -0.1610
      9 N          63.5103   86.3852   13.1240 N.ar    1  UNL1       -0.1985
     10 N          62.1445   86.8472   10.9627 N.pl3   1  UNL1       -0.3142
     11 H          62.5778   86.2385   10.3215 H       1  UNL1        0.1485
     12 C          60.7200   87.2675   10.7528 C.3     1  UNL1        0.1185
     13 C          59.1958   89.7277    6.3363 C.3     1  UNL1        0.1537
     14 N          59.5096   88.6536    7.3354 N.ar    1  UNL1       -0.2476
     15 C          60.0464   88.8668    8.7197 C.ar    1  UNL1        0.0941
     16 C          60.2102   87.5229    9.3654 C.ar    1  UNL1        0.0370
     17 C          59.7746   86.4791    8.3801 C.ar    1  UNL1        0.1190
     18 N          59.3416   87.1780    7.1255 N.ar    1  UNL1       -0.1679
     19 O          63.9997   90.8129   13.7611 O.3     1  UNL1       -0.4601
     20 C          65.0442   91.3233   14.7090 C.3     1  UNL1        0.2074
     21 C          66.4026   91.6997   14.1962 C.3     1  UNL1        0.0497
     22 C          67.8800   91.8412   14.4139 C.3     1  UNL1        0.0101
     23 C          67.2781   92.2103   13.0903 C.3     1  UNL1        0.0440
     24 C          67.4362   92.7182   11.6879 C.ar    1  UNL1        0.0588
     25 C          68.1819   91.9018   10.6742 C.ar    1  UNL1        0.0147
     26 C          68.3401   92.4095    9.2716 C.ar    1  UNL1        0.0028
     27 C          67.7525   93.7337    8.8828 C.ar    1  UNL1        0.0207
     28 C          67.0067   94.5501    9.8964 C.ar    1  UNL1        0.0984
     29 N          66.8486   94.0423   11.2989 N.ar    1  UNL1       -0.2482
@<TRIPOS>BOND
     1    13    14    1
     2    14    15   ar
     3    15    16   ar
     4    16    12    1
     5    12    10    1
     6    10     1    1
     7     1     2   ar
     8     2     3   ar
     9     3    19    1
    10    19    20    1
    11    21    20    1
    12    21    22    1
    13    22    23    1
    14    23    24    1
    15    24    25   ar
    16    25    26   ar
    17    26    27   ar
    18    27    28   ar
    19    28    29   ar
    20     3     4   ar
    21     4     5   ar
    22     5     6   ar
    23     6     7   ar
    24     7     8   ar
    25     8     9   ar
    26    16    17   ar
    27    17    18   ar
    28    18    14   ar
    29     9     1   ar
    30    23    21    1
    31    29    24   ar
    32     9     5   ar
    33    10    11    1
@<TRIPOS>MOLECULE
*****
 29 33 0 0 0
SMALL
GASTEIGER

@<TRIPOS>ATOM
      1 C          63.5783   88.2952   13.3252 C.ar    1  UNL1        0.1365
      2 C          63.9112   88.8500   14.6784 C.ar    1  UNL1        0.0918
      3 C          63.9407   90.3341   14.8940 C.ar    1  UNL1        0.2290
      4 N          63.6372   91.2635   13.7563 N.ar    1  UNL1       -0.1923
      5 C          63.3043   90.7086   12.4031 C.ar    1  UNL1        0.1698
      6 C          62.9639   91.3729   11.1020 C.ar    1  UNL1        0.0614
      7 C          62.7241   90.2993   10.0823 C.ar    1  UNL1        0.1238
      8 N          62.9162   88.9715   10.7531 N.ar    1  UNL1       -0.1610
      9 N          63.2748   89.2245   12.1875 N.ar    1  UNL1       -0.1985
     10 N          63.5488   86.8110   13.1096 N.pl3   1  UNL1       -0.3142
     11 H          63.1931   86.4427   12.2687 H       1  UNL1        0.1485
     12 C          64.0613   85.8881   14.1752 C.3     1  UNL1        0.1185
     13 C          63.0764   80.8569   12.9109 C.3     1  UNL1        0.1537
     14 N          63.1219   82.1580   13.6560 N.ar    1  UNL1       -0.2476
     15 C          63.7678   83.4250   13.1790 C.ar    1  UNL1        0.0941
     16 C          63.5747   84.4705   14.2371 C.ar    1  UNL1        0.0370
     17 C          62.8094   83.8497   15.3680 C.ar    1  UNL1        0.1190
     18 N          62.5296   82.4205   15.0088 N.ar    1  UNL1       -0.1679
     19 O          64.2737   90.8889   16.2473 O.3     1  UNL1       -0.4601
     20 C          64.9155   92.2394   16.3671 C.3     1  UNL1        0.2074
     21 C          66.2133   92.5176   15.6683 C.3     1  UNL1        0.0497
     22 C          67.6837   92.8086   15.7267 C.3     1  UNL1        0.0101
     23 C          66.9909   92.7084   14.3999 C.3     1  UNL1        0.0440
     24 C          67.0400   92.7608   12.9017 C.ar    1  UNL1        0.0588
     25 C          66.0054   93.5392   12.1441 C.ar    1  UNL1        0.0147
     26 C          66.0544   93.5916   10.6459 C.ar    1  UNL1        0.0028
     27 C          67.1380   92.8656    9.9051 C.ar    1  UNL1        0.0207
     28 C          68.1725   92.0872   10.6626 C.ar    1  UNL1        0.0984
     29 N          68.1235   92.0348   12.1609 N.ar    1  UNL1       -0.2482
@<TRIPOS>BOND
     1    13    14    1
     2    14    15   ar
     3    15    16   ar
     4    16    12    1
     5    12    10    1
     6    10     1    1
     7     1     2   ar
     8     2     3   ar
     9     3    19    1
    10    19    20    1
    11    21    20    1
    12    21    22    1
    13    22    23    1
    14    23    24    1
    15    24    25   ar
    16    25    26   ar
    17    26    27   ar
    18    27    28   ar
    19    28    29   ar
    20     3     4   ar
    21     4     5   ar
    22     5     6   ar
    23     6     7   ar
    24     7     8   ar
    25     8     9   ar
    26    16    17   ar
    27    17    18   ar
    28    18    14   ar
    29     9     1   ar
    30    23    21    1
    31    29    24   ar
    32     9     5   ar
    33    10    11    1
