@<TRIPOS>MOLECULE
*****
 43 46 0 0 0
SMALL
GASTEIGER

@<TRIPOS>ATOM
      1 N          61.8320   89.6864   12.2873 N.3     1  UNL1       -0.2699
      2 C          59.4678   90.4573   11.5348 C.3     1  UNL1        0.0188
      3 C          60.3396   89.6180   12.4212 C.3     1  UNL1        0.0722
      4 C          62.5630   90.9383   12.6723 C.3     1  UNL1        0.0920
      5 C          63.8671   90.8492   13.4081 C.3     1  UNL1        0.0907
      6 N          65.1585   91.0547   12.6731 N.am    1  UNL1       -0.2709
      7 C          66.0630   92.1906   13.0494 C.2     1  UNL1        0.4020
      8 O          65.6761   93.1210   14.1605 O.2     1  UNL1       -0.2264
      9 H          65.4124   90.4440   11.9438 H       1  UNL1        0.1527
     10 O          67.3543   92.3960   12.3145 O.3     1  UNL1       -0.4274
     11 C          67.3522   92.5463   10.8219 C.3     1  UNL1        0.2621
     12 C          67.2657   93.9111   10.2057 C.ar    1  UNL1        0.1323
     13 N          66.8298   95.1666   10.9014 N.ar    1  UNL1       -0.2374
     14 C          66.8945   96.2915    9.9112 C.ar    1  UNL1        0.1062
     15 C          67.3704   95.7313    8.6036 C.ar    1  UNL1        0.0573
     16 S          67.5997   94.2601    8.7857 S.2     1  UNL1       -0.0666
     17 C          63.8798   90.5545   14.8788 C.3     1  UNL1        0.0211
     18 C          63.7900   89.1368   15.3605 C.3     1  UNL1        0.0017
     19 C          63.0647   88.8224   16.6353 C.3     1  UNL1        0.0001
     20 C          62.9749   87.4047   17.1169 C.3     1  UNL1        0.0000
     21 C          63.6104   86.3014   16.3238 C.3     1  UNL1        0.0000
     22 C          64.3356   86.6158   15.0490 C.3     1  UNL1        0.0000
     23 C          64.4254   88.0336   14.5673 C.3     1  UNL1        0.0001
     24 C          62.5934   88.5028   11.7683 C.3     1  UNL1        0.0920
     25 C          61.9711   87.6013   10.7435 C.3     1  UNL1        0.0907
     26 N          61.8058   88.0746    9.3298 N.am    1  UNL1       -0.2709
     27 C          60.4412   88.1196    8.7087 C.2     1  UNL1        0.4020
     28 O          59.2419   87.6913    9.5013 O.2     1  UNL1       -0.2264
     29 H          62.5930   88.3556    8.8096 H       1  UNL1        0.1527
     30 O          60.2759   88.5928    7.2950 O.3     1  UNL1       -0.4291
     31 C          58.9519   89.1244    6.8319 C.3     1  UNL1        0.2447
     32 C          58.9001   90.2819    5.8793 C.ar    1  UNL1        0.0714
     33 C          57.6596   90.9827    5.4100 C.ar    1  UNL1        0.1053
     34 N          58.0724   92.0758    4.4694 N.ar    1  UNL1       -0.2350
     35 C          59.5681   92.0505    4.3574 C.ar    1  UNL1        0.1343
     36 S          60.0796   90.9419    5.2287 S.2     1  UNL1       -0.0652
     37 C          61.5142   86.2265   11.1325 C.3     1  UNL1        0.0211
     38 C          62.4998   85.0974   11.1919 C.3     1  UNL1        0.0017
     39 C          62.9373   84.5527   12.5193 C.3     1  UNL1        0.0001
     40 C          63.9229   83.4236   12.5787 C.3     1  UNL1        0.0000
     41 C          64.4711   82.8391   11.3107 C.3     1  UNL1        0.0000
     42 C          64.0336   83.3837    9.9833 C.3     1  UNL1        0.0000
     43 C          63.0480   84.5129    9.9239 C.3     1  UNL1        0.0001
@<TRIPOS>BOND
     1     2     3    1
     2     3     1    1
     3     1    24    1
     4    24    25    1
     5    25    37    1
     6    37    38    1
     7    38    39    1
     8    39    40    1
     9    40    41    1
    10    41    42    1
    11    42    43    1
    12    25    26    1
    13    26    27   am
    14    27    28    2
    15    27    30    1
    16    30    31    1
    17    31    32    1
    18    32    33   ar
    19    33    34   ar
    20    34    35   ar
    21    35    36   ar
    22     1     4    1
    23     4     5    1
    24     5    17    1
    25    17    18    1
    26    18    19    1
    27    19    20    1
    28    20    21    1
    29    21    22    1
    30    22    23    1
    31     5     6    1
    32     6     7   am
    33     7     8    2
    34     7    10    1
    35    10    11    1
    36    11    12    1
    37    12    13   ar
    38    13    14   ar
    39    14    15   ar
    40    15    16   ar
    41    43    38    1
    42    36    32   ar
    43    23    18    1
    44    16    12   ar
    45    26    29    1
    46     6     9    1
@<TRIPOS>MOLECULE
*****
 43 46 0 0 0
SMALL
GASTEIGER

@<TRIPOS>ATOM
      1 N          62.6821   89.7950   12.0786 N.3     1  UNL1       -0.2699
      2 C          63.7935   91.5444   10.5119 C.3     1  UNL1        0.0188
      3 C          62.5604   90.8880   11.0586 C.3     1  UNL1        0.0722
      4 C          62.4102   90.0852   13.5249 C.3     1  UNL1        0.0920
      5 C          63.5512   90.2424   14.4857 C.3     1  UNL1        0.0907
      6 N          64.7872   90.9825   14.0676 N.am    1  UNL1       -0.2709
      7 C          65.3839   92.0182   14.9739 C.2     1  UNL1        0.4020
      8 O          64.7446   92.3138   16.2982 O.2     1  UNL1       -0.2264
      9 H          65.2068   90.7885   13.1984 H       1  UNL1        0.1527
     10 O          66.6198   92.7582   14.5558 O.3     1  UNL1       -0.4274
     11 C          66.5135   93.9309   13.6266 C.3     1  UNL1        0.2621
     12 C          66.6925   93.7366   12.1500 C.ar    1  UNL1        0.1323
     13 N          67.3592   92.5666   11.4892 N.ar    1  UNL1       -0.2374
     14 C          67.3150   92.7850   10.0058 C.ar    1  UNL1        0.1062
     15 C          66.6208   94.0899    9.7499 C.ar    1  UNL1        0.0573
     16 S          66.2362   94.6780   11.0752 S.2     1  UNL1       -0.0666
     17 C          63.4564   89.6597   15.8646 C.3     1  UNL1        0.0211
     18 C          63.5119   88.1730   16.0560 C.3     1  UNL1        0.0017
     19 C          62.8337   87.5430   17.2364 C.3     1  UNL1        0.0001
     20 C          62.8892   86.0563   17.4278 C.3     1  UNL1        0.0000
     21 C          63.6228   85.1996   16.4388 C.3     1  UNL1        0.0000
     22 C          64.3010   85.8297   15.2585 C.3     1  UNL1        0.0000
     23 C          64.2455   87.3164   15.0671 C.3     1  UNL1        0.0001
     24 C          63.0757   88.4118   11.6523 C.3     1  UNL1        0.0920
     25 C          62.0240   87.3617   11.4494 C.3     1  UNL1        0.0907
     26 N          62.3888   85.9091   11.5315 N.am    1  UNL1       -0.2709
     27 C          62.8068   85.1697   10.2951 C.2     1  UNL1        0.4020
     28 O          62.8601   85.8829    8.9767 O.2     1  UNL1       -0.2264
     29 H          62.3538   85.4409   12.3969 H       1  UNL1        0.1527
     30 O          63.1716   83.7171   10.3773 O.3     1  UNL1       -0.4291
     31 C          63.8919   83.1917   11.5836 C.3     1  UNL1        0.2447
     32 C          63.1666   82.3289   12.5734 C.ar    1  UNL1        0.0714
     33 C          62.5694   82.7867   13.8710 C.ar    1  UNL1        0.1053
     34 N          61.9450   81.5976   14.5390 N.ar    1  UNL1       -0.2350
     35 C          62.1563   80.4049   13.6541 C.ar    1  UNL1        0.1343
     36 S          62.9113   80.8569   12.4394 S.2     1  UNL1       -0.0652
     37 C          60.6073   87.7643   11.1643 C.3     1  UNL1        0.0211
     38 C          60.1415   87.9158    9.7466 C.3     1  UNL1        0.0017
     39 C          60.2183   89.2527    9.0706 C.3     1  UNL1        0.0001
     40 C          59.7525   89.4042    7.6529 C.3     1  UNL1        0.0000
     41 C          59.2098   88.2188    6.9110 C.3     1  UNL1        0.0000
     42 C          59.1330   86.8819    7.5869 C.3     1  UNL1        0.0000
     43 C          59.5989   86.7304    9.0047 C.3     1  UNL1        0.0001
@<TRIPOS>BOND
     1     2     3    1
     2     3     1    1
     3     1    24    1
     4    24    25    1
     5    25    37    1
     6    37    38    1
     7    38    39    1
     8    39    40    1
     9    40    41    1
    10    41    42    1
    11    42    43    1
    12    25    26    1
    13    26    27   am
    14    27    28    2
    15    27    30    1
    16    30    31    1
    17    31    32    1
    18    32    33   ar
    19    33    34   ar
    20    34    35   ar
    21    35    36   ar
    22     1     4    1
    23     4     5    1
    24     5    17    1
    25    17    18    1
    26    18    19    1
    27    19    20    1
    28    20    21    1
    29    21    22    1
    30    22    23    1
    31     5     6    1
    32     6     7   am
    33     7     8    2
    34     7    10    1
    35    10    11    1
    36    11    12    1
    37    12    13   ar
    38    13    14   ar
    39    14    15   ar
    40    15    16   ar
    41    43    38    1
    42    36    32   ar
    43    23    18    1
    44    16    12   ar
    45    26    29    1
    46     6     9    1
@<TRIPOS>MOLECULE
*****
 43 46 0 0 0
SMALL
GASTEIGER

@<TRIPOS>ATOM
      1 N          62.7546   89.7428   12.0131 N.3     1  UNL1       -0.2699
      2 C          63.7162   91.5845   10.4531 C.3     1  UNL1        0.0188
      3 C          62.6021   90.6539   10.8313 C.3     1  UNL1        0.0722
      4 C          63.0909   88.2957   11.8059 C.3     1  UNL1        0.0920
      5 C          62.0137   87.3217   11.4305 C.3     1  UNL1        0.0907
      6 N          62.3232   85.8562   11.3481 N.am    1  UNL1       -0.2709
      7 C          62.8026   85.2623   10.0568 C.2     1  UNL1        0.4020
      8 O          62.9727   86.1338    8.8479 O.2     1  UNL1       -0.2264
      9 H          62.2116   85.2842   12.1415 H       1  UNL1        0.1527
     10 O          63.1120   83.7969    9.9745 O.3     1  UNL1       -0.4274
     11 C          63.9103   83.1368   11.0595 C.3     1  UNL1        0.2621
     12 C          63.2131   82.5357   12.2437 C.ar    1  UNL1        0.1323
     13 N          62.6811   83.2864   13.4284 N.ar    1  UNL1       -0.2374
     14 C          62.0646   82.2930   14.3681 C.ar    1  UNL1        0.1062
     15 C          62.2156   80.9282   13.7641 C.ar    1  UNL1        0.0573
     16 S          62.9254   81.0782   12.4512 S.2     1  UNL1       -0.0666
     17 C          60.6272   87.8130   11.1373 C.3     1  UNL1        0.0211
     18 C          60.1543   87.9215    9.7179 C.3     1  UNL1        0.0017
     19 C          60.2163   89.2400    9.0054 C.3     1  UNL1        0.0001
     20 C          59.7435   89.3485    7.5861 C.3     1  UNL1        0.0000
     21 C          59.2086   88.1384    6.8792 C.3     1  UNL1        0.0000
     22 C          59.1466   86.8198    7.5917 C.3     1  UNL1        0.0000
     23 C          59.6195   86.7114    9.0111 C.3     1  UNL1        0.0001
     24 C          62.5707   90.2787   13.4019 C.3     1  UNL1        0.0920
     25 C          63.7061   90.2303   14.3809 C.3     1  UNL1        0.0907
     26 N          65.0721   90.6929   13.9687 N.am    1  UNL1       -0.2709
     27 C          65.7444   91.8058   14.7167 C.2     1  UNL1        0.4020
     28 O          65.0508   92.4560   15.8769 O.2     1  UNL1       -0.2264
     29 H          65.5274   90.2662   13.2073 H       1  UNL1        0.1527
     30 O          67.1104   92.2685   14.3045 O.3     1  UNL1       -0.4291
     31 C          67.5876   92.0407   12.9008 C.3     1  UNL1        0.2447
     32 C          67.0687   92.8973   11.7840 C.ar    1  UNL1        0.0714
     33 C          67.2783   92.6572   10.3182 C.ar    1  UNL1        0.1053
     34 N          66.5883   93.7557    9.5652 N.ar    1  UNL1       -0.2350
     35 C          65.9521   94.6748   10.5656 C.ar    1  UNL1        0.1343
     36 S          66.2490   94.1442   11.9369 S.2     1  UNL1       -0.0652
     37 C          63.4755   89.7191   15.7722 C.3     1  UNL1        0.0211
     38 C          63.5041   88.2442   16.0437 C.3     1  UNL1        0.0017
     39 C          64.2239   87.3224   15.1043 C.3     1  UNL1        0.0001
     40 C          64.2525   85.8475   15.3758 C.3     1  UNL1        0.0000
     41 C          63.5613   85.2942   16.5866 C.3     1  UNL1        0.0000
     42 C          62.8415   86.2159   17.5260 C.3     1  UNL1        0.0000
     43 C          62.8129   87.6909   17.2545 C.3     1  UNL1        0.0001
@<TRIPOS>BOND
     1     2     3    1
     2     3     1    1
     3     1    24    1
     4    24    25    1
     5    25    37    1
     6    37    38    1
     7    38    39    1
     8    39    40    1
     9    40    41    1
    10    41    42    1
    11    42    43    1
    12    25    26    1
    13    26    27   am
    14    27    28    2
    15    27    30    1
    16    30    31    1
    17    31    32    1
    18    32    33   ar
    19    33    34   ar
    20    34    35   ar
    21    35    36   ar
    22     1     4    1
    23     4     5    1
    24     5    17    1
    25    17    18    1
    26    18    19    1
    27    19    20    1
    28    20    21    1
    29    21    22    1
    30    22    23    1
    31     5     6    1
    32     6     7   am
    33     7     8    2
    34     7    10    1
    35    10    11    1
    36    11    12    1
    37    12    13   ar
    38    13    14   ar
    39    14    15   ar
    40    15    16   ar
    41    43    38    1
    42    36    32   ar
    43    23    18    1
    44    16    12   ar
    45    26    29    1
    46     6     9    1
@<TRIPOS>MOLECULE
*****
 43 46 0 0 0
SMALL
GASTEIGER

@<TRIPOS>ATOM
      1 N          62.3339   89.4908   11.4599 N.3     1  UNL1       -0.2699
      2 C          59.9527   90.5119   11.2677 C.3     1  UNL1        0.0188
      3 C          61.3638   90.5919   11.7701 C.3     1  UNL1        0.0722
      4 C          63.5439   89.2917   12.3238 C.3     1  UNL1        0.0920
      5 C          63.9795   90.3748   13.2656 C.3     1  UNL1        0.0907
      6 N          64.7589   91.5483   12.7501 N.am    1  UNL1       -0.2709
      7 C          66.0786   91.9023   13.3689 C.2     1  UNL1        0.4020
      8 O          66.6189   91.0829   14.5033 O.2     1  UNL1       -0.2264
      9 H          64.4043   92.0860   12.0056 H       1  UNL1        0.1527
     10 O          66.8580   93.0756   12.8534 O.3     1  UNL1       -0.4274
     11 C          66.1400   94.2452   12.2478 C.3     1  UNL1        0.2621
     12 C          66.5928   94.8033   10.9312 C.ar    1  UNL1        0.1323
     13 N          67.5669   94.1602    9.9891 N.ar    1  UNL1       -0.2374
     14 C          67.7272   95.0619    8.8011 C.ar    1  UNL1        0.1062
     15 C          66.8520   96.2623    9.0091 C.ar    1  UNL1        0.0573
     16 S          66.1510   96.1025   10.3255 S.2     1  UNL1       -0.0666
     17 C          63.6356   90.2847   14.7229 C.3     1  UNL1        0.0211
     18 C          63.6140   88.9501   15.4072 C.3     1  UNL1        0.0017
     19 C          64.3124   87.7771   14.7856 C.3     1  UNL1        0.0001
     20 C          64.2907   86.4425   15.4699 C.3     1  UNL1        0.0000
     21 C          63.5706   86.2809   16.7759 C.3     1  UNL1        0.0000
     22 C          62.8722   87.4539   17.3974 C.3     1  UNL1        0.0000
     23 C          62.8939   88.7885   16.7130 C.3     1  UNL1        0.0001
     24 C          62.0941   88.5887   10.2857 C.3     1  UNL1        0.0920
     25 C          61.2086   87.3868   10.4318 C.3     1  UNL1        0.0907
     26 N          61.1131   86.6817   11.7522 N.am    1  UNL1       -0.2709
     27 C          62.0855   85.5913   12.0923 C.2     1  UNL1        0.4020
     28 O          63.1533   85.2061   11.1119 O.2     1  UNL1       -0.2264
     29 H          60.4122   86.9345   12.3957 H       1  UNL1        0.1527
     30 O          61.9900   84.8862   13.4127 O.3     1  UNL1       -0.4291
     31 C          62.9877   83.8246   13.7700 C.3     1  UNL1        0.2447
     32 C          62.7222   82.3934   13.4077 C.ar    1  UNL1        0.0714
     33 C          61.9400   81.4077   14.2243 C.ar    1  UNL1        0.1053
     34 N          61.9267   80.1017   13.4866 N.ar    1  UNL1       -0.2350
     35 C          62.7006   80.2803   12.2141 C.ar    1  UNL1        0.1343
     36 S          63.1923   81.6966   12.1654 S.2     1  UNL1       -0.0652
     37 C          60.4185   86.8901    9.2574 C.3     1  UNL1        0.0211
     38 C          61.0704   86.0087    8.2336 C.3     1  UNL1        0.0017
     39 C          62.5327   85.6912    8.3393 C.3     1  UNL1        0.0001
     40 C          63.1846   84.8098    7.3155 C.3     1  UNL1        0.0000
     41 C          62.3744   84.2459    6.1861 C.3     1  UNL1        0.0000
     42 C          60.9122   84.5635    6.0804 C.3     1  UNL1        0.0000
     43 C          60.2602   85.4449    7.1042 C.3     1  UNL1        0.0001
@<TRIPOS>BOND
     1     2     3    1
     2     3     1    1
     3     1    24    1
     4    24    25    1
     5    25    37    1
     6    37    38    1
     7    38    39    1
     8    39    40    1
     9    40    41    1
    10    41    42    1
    11    42    43    1
    12    25    26    1
    13    26    27   am
    14    27    28    2
    15    27    30    1
    16    30    31    1
    17    31    32    1
    18    32    33   ar
    19    33    34   ar
    20    34    35   ar
    21    35    36   ar
    22     1     4    1
    23     4     5    1
    24     5    17    1
    25    17    18    1
    26    18    19    1
    27    19    20    1
    28    20    21    1
    29    21    22    1
    30    22    23    1
    31     5     6    1
    32     6     7   am
    33     7     8    2
    34     7    10    1
    35    10    11    1
    36    11    12    1
    37    12    13   ar
    38    13    14   ar
    39    14    15   ar
    40    15    16   ar
    41    43    38    1
    42    36    32   ar
    43    23    18    1
    44    16    12   ar
    45    26    29    1
    46     6     9    1
@<TRIPOS>MOLECULE
*****
 43 46 0 0 0
SMALL
GASTEIGER

@<TRIPOS>ATOM
      1 N          61.8724   89.9299   10.3312 N.3     1  UNL1       -0.2699
      2 C          59.7164   90.1749   11.7601 C.3     1  UNL1        0.0188
      3 C          60.3973   90.1858   10.4235 C.3     1  UNL1        0.0722
      4 C          62.3831   88.5259   10.1980 C.3     1  UNL1        0.0920
      5 C          61.4630   87.3667   10.4420 C.3     1  UNL1        0.0907
      6 N          61.4396   86.6972   11.7841 N.am    1  UNL1       -0.2709
      7 C          62.2933   85.4897   12.0349 C.2     1  UNL1        0.4020
      8 O          63.1705   84.9516   10.9436 O.2     1  UNL1       -0.2264
      9 H          60.8638   87.0504   12.5004 H       1  UNL1        0.1527
     10 O          62.2699   84.8203   13.3770 O.3     1  UNL1       -0.4274
     11 C          63.2541   83.7324   13.6899 C.3     1  UNL1        0.2621
     12 C          62.9187   82.3045   13.3758 C.ar    1  UNL1        0.1323
     13 N          62.4193   81.2809   14.3520 N.ar    1  UNL1       -0.2374
     14 C          62.2157   79.9933   13.6100 C.ar    1  UNL1        0.1062
     15 C          62.5893   80.2212   12.1752 C.ar    1  UNL1        0.0573
     16 S          63.0237   81.6496   12.0305 S.2     1  UNL1       -0.0666
     17 C          60.5661   86.8770    9.3439 C.3     1  UNL1        0.0211
     18 C          61.1172   85.9957    8.2624 C.3     1  UNL1        0.0017
     19 C          62.5696   85.6210    8.2675 C.3     1  UNL1        0.0001
     20 C          63.1207   84.7398    7.1860 C.3     1  UNL1        0.0000
     21 C          62.2193   84.2332    6.0993 C.3     1  UNL1        0.0000
     22 C          60.7669   84.6079    6.0941 C.3     1  UNL1        0.0000
     23 C          60.2158   85.4892    7.1757 C.3     1  UNL1        0.0001
     24 C          62.8367   91.0781   10.3719 C.3     1  UNL1        0.0920
     25 C          63.6414   91.3380   11.6108 C.3     1  UNL1        0.0907
     26 N          62.9970   91.2273   12.9607 N.am    1  UNL1       -0.2709
     27 C          63.0368   89.9263   13.7063 C.2     1  UNL1        0.4020
     28 O          63.7210   88.7361   13.1020 O.2     1  UNL1       -0.2264
     29 H          62.5479   92.0084   13.3574 H       1  UNL1        0.1527
     30 O          62.3923   89.8155   15.0563 O.3     1  UNL1       -0.4291
     31 C          63.1941   89.3459   16.2338 C.3     1  UNL1        0.2447
     32 C          63.1745   87.8979   16.6251 C.ar    1  UNL1        0.0714
     33 C          62.4445   87.3109   17.7966 C.ar    1  UNL1        0.1053
     34 N          62.7002   85.8330   17.8091 N.ar    1  UNL1       -0.2350
     35 C          63.5884   85.5065   16.6452 C.ar    1  UNL1        0.1343
     36 S          63.8815   86.7827   15.9134 S.2     1  UNL1       -0.0652
     37 C          65.0907   91.7088   11.4997 C.3     1  UNL1        0.0211
     38 C          65.8255   92.2302   12.6989 C.3     1  UNL1        0.0017
     39 C          66.1098   93.6977   12.8247 C.3     1  UNL1        0.0001
     40 C          66.8446   94.2192   14.0239 C.3     1  UNL1        0.0000
     41 C          67.2952   93.2732   15.0973 C.3     1  UNL1        0.0000
     42 C          67.0109   91.8058   14.9715 C.3     1  UNL1        0.0000
     43 C          66.2761   91.2843   13.7722 C.3     1  UNL1        0.0001
@<TRIPOS>BOND
     1     2     3    1
     2     3     1    1
     3     1    24    1
     4    24    25    1
     5    25    37    1
     6    37    38    1
     7    38    39    1
     8    39    40    1
     9    40    41    1
    10    41    42    1
    11    42    43    1
    12    25    26    1
    13    26    27   am
    14    27    28    2
    15    27    30    1
    16    30    31    1
    17    31    32    1
    18    32    33   ar
    19    33    34   ar
    20    34    35   ar
    21    35    36   ar
    22     1     4    1
    23     4     5    1
    24     5    17    1
    25    17    18    1
    26    18    19    1
    27    19    20    1
    28    20    21    1
    29    21    22    1
    30    22    23    1
    31     5     6    1
    32     6     7   am
    33     7     8    2
    34     7    10    1
    35    10    11    1
    36    11    12    1
    37    12    13   ar
    38    13    14   ar
    39    14    15   ar
    40    15    16   ar
    41    43    38    1
    42    36    32   ar
    43    23    18    1
    44    16    12   ar
    45    26    29    1
    46     6     9    1
@<TRIPOS>MOLECULE
*****
 43 46 0 0 0
SMALL
GASTEIGER

@<TRIPOS>ATOM
      1 N          60.8617   89.9085   11.7227 N.3     1  UNL1       -0.2699
      2 C          58.6044   89.0582   12.6878 C.3     1  UNL1        0.0188
      3 C          59.3873   90.0894   11.9303 C.3     1  UNL1        0.0722
      4 C          61.4001   89.6591   10.3450 C.3     1  UNL1        0.0920
      5 C          60.5663   88.9281    9.3349 C.3     1  UNL1        0.0907
      6 N          60.1079   89.6305    8.0913 N.am    1  UNL1       -0.2709
      7 C          59.3013   88.8903    7.0659 C.2     1  UNL1        0.4020
      8 O          58.9531   87.4477    7.2841 O.2     1  UNL1       -0.2264
      9 H          60.3364   90.5774    7.9480 H       1  UNL1        0.1527
     10 O          58.8429   89.5927    5.8223 O.3     1  UNL1       -0.4274
     11 C          58.9498   91.0856    5.7215 C.3     1  UNL1        0.2621
     12 C          59.6970   91.7086    4.5798 C.ar    1  UNL1        0.1323
     13 N          59.1215   92.6362    3.5510 N.ar    1  UNL1       -0.2374
     14 C          60.2197   93.0143    2.6017 C.ar    1  UNL1        0.1062
     15 C          61.4739   92.3203    3.0439 C.ar    1  UNL1        0.0573
     16 S          61.1508   91.5133    4.2664 S.2     1  UNL1       -0.0666
     17 C          60.1909   87.4947    9.5683 C.3     1  UNL1        0.0211
     18 C          61.2608   86.4589    9.7482 C.3     1  UNL1        0.0017
     19 C          62.0602   85.9934    8.5675 C.3     1  UNL1        0.0001
     20 C          63.1301   84.9576    8.7474 C.3     1  UNL1        0.0000
     21 C          63.4006   84.3873   10.1082 C.3     1  UNL1        0.0000
     22 C          62.6012   84.8528   11.2889 C.3     1  UNL1        0.0000
     23 C          61.5312   85.8886   11.1090 C.3     1  UNL1        0.0001
     24 C          61.7978   89.9769   12.8927 C.3     1  UNL1        0.0920
     25 C          63.2714   89.7871   12.6864 C.3     1  UNL1        0.0907
     26 N          63.9165   88.4808   13.0434 N.am    1  UNL1       -0.2709
     27 C          63.9891   88.0474   14.4776 C.2     1  UNL1        0.4020
     28 O          63.4165   88.9202   15.5548 O.2     1  UNL1       -0.2264
     29 H          64.2923   87.9080   12.3364 H       1  UNL1        0.1527
     30 O          64.6342   86.7412   14.8346 O.3     1  UNL1       -0.4291
     31 C          63.9290   85.7806   15.7457 C.3     1  UNL1        0.2447
     32 C          63.5270   84.4263   15.2414 C.ar    1  UNL1        0.0714
     33 C          64.4594   83.3136   14.8637 C.ar    1  UNL1        0.1053
     34 N          63.6307   82.1465   14.4152 N.ar    1  UNL1       -0.2350
     35 C          62.1861   82.5379   14.5157 C.ar    1  UNL1        0.1343
     36 S          62.1220   83.9468   15.0264 S.2     1  UNL1       -0.0652
     37 C          64.0998   90.9035   12.1231 C.3     1  UNL1        0.0211
     38 C          64.9797   91.7146   13.0274 C.3     1  UNL1        0.0017
     39 C          65.6577   92.9471   12.5064 C.3     1  UNL1        0.0001
     40 C          66.5376   93.7582   13.4107 C.3     1  UNL1        0.0000
     41 C          66.7395   93.3369   14.8361 C.3     1  UNL1        0.0000
     42 C          66.0616   92.1045   15.3572 C.3     1  UNL1        0.0000
     43 C          65.1816   91.2933   14.4528 C.3     1  UNL1        0.0001
@<TRIPOS>BOND
     1     2     3    1
     2     3     1    1
     3     1    24    1
     4    24    25    1
     5    25    37    1
     6    37    38    1
     7    38    39    1
     8    39    40    1
     9    40    41    1
    10    41    42    1
    11    42    43    1
    12    25    26    1
    13    26    27   am
    14    27    28    2
    15    27    30    1
    16    30    31    1
    17    31    32    1
    18    32    33   ar
    19    33    34   ar
    20    34    35   ar
    21    35    36   ar
    22     1     4    1
    23     4     5    1
    24     5    17    1
    25    17    18    1
    26    18    19    1
    27    19    20    1
    28    20    21    1
    29    21    22    1
    30    22    23    1
    31     5     6    1
    32     6     7   am
    33     7     8    2
    34     7    10    1
    35    10    11    1
    36    11    12    1
    37    12    13   ar
    38    13    14   ar
    39    14    15   ar
    40    15    16   ar
    41    43    38    1
    42    36    32   ar
    43    23    18    1
    44    16    12   ar
    45    26    29    1
    46     6     9    1
@<TRIPOS>MOLECULE
*****
 43 46 0 0 0
SMALL
GASTEIGER

@<TRIPOS>ATOM
      1 N          63.7778   87.0782   15.7143 N.3     1  UNL1       -0.2699
      2 C          62.6149   86.8609   18.0274 C.3     1  UNL1        0.0188
      3 C          63.0377   87.7025   16.8599 C.3     1  UNL1        0.0722
      4 C          63.8486   85.5848   15.5919 C.3     1  UNL1        0.0920
      5 C          63.5624   84.9258   14.2751 C.3     1  UNL1        0.0907
      6 N          62.2644   85.1893   13.5710 N.am    1  UNL1       -0.2709
      7 C          62.2268   86.1092   12.3868 C.2     1  UNL1        0.4020
      8 O          63.4872   86.7657   11.9067 O.2     1  UNL1       -0.2264
      9 H          61.4372   84.7585   13.8860 H       1  UNL1        0.1527
     10 O          60.9289   86.3727   11.6827 O.3     1  UNL1       -0.4274
     11 C          60.9276   87.0192   10.3291 C.3     1  UNL1        0.2621
     12 C          61.3596   86.2373    9.1241 C.ar    1  UNL1        0.1323
     13 N          62.6933   85.5781    8.9324 N.ar    1  UNL1       -0.2374
     14 C          62.6917   84.9107    7.5891 C.ar    1  UNL1        0.1062
     15 C          61.3570   85.1575    6.9505 C.ar    1  UNL1        0.0573
     16 S          60.5337   85.9773    7.8992 S.2     1  UNL1       -0.0666
     17 C          64.5742   84.0033   13.6625 C.3     1  UNL1        0.0211
     18 C          64.1474   82.9992   12.6332 C.3     1  UNL1        0.0017
     19 C          64.4655   83.2278   11.1853 C.3     1  UNL1        0.0001
     20 C          64.0386   82.2237   10.1560 C.3     1  UNL1        0.0000
     21 C          63.2937   80.9909   10.5746 C.3     1  UNL1        0.0000
     22 C          62.9756   80.7622   12.0226 C.3     1  UNL1        0.0000
     23 C          63.4025   81.7664   13.0519 C.3     1  UNL1        0.0001
     24 C          64.4470   87.9471   14.6911 C.3     1  UNL1        0.0920
     25 C          64.0225   89.3765   14.5279 C.3     1  UNL1        0.0907
     26 N          64.9959   90.4841   14.8031 N.am    1  UNL1       -0.2709
     27 C          64.6473   91.5620   15.7862 C.2     1  UNL1        0.4020
     28 O          63.3253   91.5324   16.4942 O.2     1  UNL1       -0.2264
     29 H          65.8637   90.5035   14.3384 H       1  UNL1        0.1527
     30 O          65.6208   92.6695   16.0613 O.3     1  UNL1       -0.4291
     31 C          66.9548   92.6832   15.3756 C.3     1  UNL1        0.2447
     32 C          67.0280   92.7531   13.8789 C.ar    1  UNL1        0.0714
     33 C          67.9033   91.9109   12.9988 C.ar    1  UNL1        0.1053
     34 N          67.6551   92.3147   11.5756 N.ar    1  UNL1       -0.2350
     35 C          66.6265   93.4065   11.5763 C.ar    1  UNL1        0.1343
     36 S          66.2390   93.6774   12.9998 S.2     1  UNL1       -0.0652
     37 C          62.6245   89.6984   14.0896 C.3     1  UNL1        0.0211
     38 C          62.3464   90.0302   12.6534 C.3     1  UNL1        0.0017
     39 C          60.9461   89.9474   12.1221 C.3     1  UNL1        0.0001
     40 C          60.6680   90.2792   10.6859 C.3     1  UNL1        0.0000
     41 C          61.7903   90.6938    9.7811 C.3     1  UNL1        0.0000
     42 C          63.1905   90.7766   10.3124 C.3     1  UNL1        0.0000
     43 C          63.4687   90.4448   11.7486 C.3     1  UNL1        0.0001
@<TRIPOS>BOND
     1     2     3    1
     2     3     1    1
     3     1    24    1
     4    24    25    1
     5    25    37    1
     6    37    38    1
     7    38    39    1
     8    39    40    1
     9    40    41    1
    10    41    42    1
    11    42    43    1
    12    25    26    1
    13    26    27   am
    14    27    28    2
    15    27    30    1
    16    30    31    1
    17    31    32    1
    18    32    33   ar
    19    33    34   ar
    20    34    35   ar
    21    35    36   ar
    22     1     4    1
    23     4     5    1
    24     5    17    1
    25    17    18    1
    26    18    19    1
    27    19    20    1
    28    20    21    1
    29    21    22    1
    30    22    23    1
    31     5     6    1
    32     6     7   am
    33     7     8    2
    34     7    10    1
    35    10    11    1
    36    11    12    1
    37    12    13   ar
    38    13    14   ar
    39    14    15   ar
    40    15    16   ar
    41    43    38    1
    42    36    32   ar
    43    23    18    1
    44    16    12   ar
    45    26    29    1
    46     6     9    1
@<TRIPOS>MOLECULE
*****
 43 46 0 0 0
SMALL
GASTEIGER

@<TRIPOS>ATOM
      1 N          62.3385   90.2449   10.6240 N.3     1  UNL1       -0.2699
      2 C          59.7483   90.3932   10.7618 C.3     1  UNL1        0.0188
      3 C          61.0906   90.4578   11.4284 C.3     1  UNL1        0.0722
      4 C          62.7218   88.8624   10.1860 C.3     1  UNL1        0.0920
      5 C          62.2327   87.6700   10.9532 C.3     1  UNL1        0.0907
      6 N          62.8346   87.3373   12.2863 N.am    1  UNL1       -0.2709
      7 C          63.1544   85.9128   12.6304 C.2     1  UNL1        0.4020
      8 O          62.8724   84.8209   11.6414 O.2     1  UNL1       -0.2264
      9 H          63.0198   88.0540   12.9355 H       1  UNL1        0.1527
     10 O          63.7564   85.5802   13.9634 O.3     1  UNL1       -0.4274
     11 C          64.4081   84.2467   14.1804 C.3     1  UNL1        0.2621
     12 C          63.6146   82.9863   14.0021 C.ar    1  UNL1        0.1323
     13 N          64.0285   81.7904   13.1966 N.ar    1  UNL1       -0.2374
     14 C          62.9377   80.7655   13.2946 C.ar    1  UNL1        0.1062
     15 C          61.8496   81.3279   14.1607 C.ar    1  UNL1        0.0573
     16 S          62.2681   82.7004   14.5978 S.2     1  UNL1       -0.0666
     17 C          61.1415   86.8101   10.3875 C.3     1  UNL1        0.0211
     18 C          61.3374   86.1198    9.0703 C.3     1  UNL1        0.0017
     19 C          62.6798   85.5542    8.7123 C.3     1  UNL1        0.0001
     20 C          62.8757   84.8639    7.3951 C.3     1  UNL1        0.0000
     21 C          61.7293   84.7393    6.4358 C.3     1  UNL1        0.0000
     22 C          60.3869   85.3049    6.7938 C.3     1  UNL1        0.0000
     23 C          60.1910   85.9952    8.1110 C.3     1  UNL1        0.0001
     24 C          63.2032   91.4145   10.2574 C.3     1  UNL1        0.0920
     25 C          64.2855   91.8689   11.1913 C.3     1  UNL1        0.0907
     26 N          63.9608   92.1748   12.6234 N.am    1  UNL1       -0.2709
     27 C          63.9415   91.0721   13.6401 C.2     1  UNL1        0.4020
     28 O          64.2470   89.6635   13.2247 O.2     1  UNL1       -0.2264
     29 H          63.7603   93.0993   12.8961 H       1  UNL1        0.1527
     30 O          63.6169   91.3779   15.0722 O.3     1  UNL1       -0.4291
     31 C          64.7205   91.6640   16.0469 C.3     1  UNL1        0.2447
     32 C          66.0810   92.0505   15.5471 C.ar    1  UNL1        0.0714
     33 C          66.9520   93.1344   16.1098 C.ar    1  UNL1        0.1053
     34 N          68.2186   93.1748   15.3074 N.ar    1  UNL1       -0.2350
     35 C          68.1305   92.1158   14.2486 C.ar    1  UNL1        0.1343
     36 S          66.8094   91.4210   14.3968 S.2     1  UNL1       -0.0652
     37 C          65.6925   92.0175   10.6930 C.3     1  UNL1        0.0211
     38 C          66.2096   93.3691   10.2985 C.3     1  UNL1        0.0017
     39 C          65.5606   94.6081   10.8406 C.3     1  UNL1        0.0001
     40 C          66.0777   95.9597   10.4461 C.3     1  UNL1        0.0000
     41 C          67.2439   96.0724    9.5095 C.3     1  UNL1        0.0000
     42 C          67.8930   94.8336    8.9674 C.3     1  UNL1        0.0000
     43 C          67.3758   93.4819    9.3619 C.3     1  UNL1        0.0001
@<TRIPOS>BOND
     1     2     3    1
     2     3     1    1
     3     1    24    1
     4    24    25    1
     5    25    37    1
     6    37    38    1
     7    38    39    1
     8    39    40    1
     9    40    41    1
    10    41    42    1
    11    42    43    1
    12    25    26    1
    13    26    27   am
    14    27    28    2
    15    27    30    1
    16    30    31    1
    17    31    32    1
    18    32    33   ar
    19    33    34   ar
    20    34    35   ar
    21    35    36   ar
    22     1     4    1
    23     4     5    1
    24     5    17    1
    25    17    18    1
    26    18    19    1
    27    19    20    1
    28    20    21    1
    29    21    22    1
    30    22    23    1
    31     5     6    1
    32     6     7   am
    33     7     8    2
    34     7    10    1
    35    10    11    1
    36    11    12    1
    37    12    13   ar
    38    13    14   ar
    39    14    15   ar
    40    15    16   ar
    41    43    38    1
    42    36    32   ar
    43    23    18    1
    44    16    12   ar
    45    26    29    1
    46     6     9    1
@<TRIPOS>MOLECULE
*****
 43 46 0 0 0
SMALL
GASTEIGER

@<TRIPOS>ATOM
      1 N          64.0605   87.6744   14.7546 N.3     1  UNL1       -0.2699
      2 C          62.9414   87.4413   17.0877 C.3     1  UNL1        0.0188
      3 C          63.7707   86.8606   15.9808 C.3     1  UNL1        0.0722
      4 C          64.1154   87.0115   13.4102 C.3     1  UNL1        0.0920
      5 C          63.3336   85.7560   13.1606 C.3     1  UNL1        0.0907
      6 N          63.8845   84.4304   13.5959 N.am    1  UNL1       -0.2709
      7 C          63.1721   83.6305   14.6460 C.2     1  UNL1        0.4020
      8 O          61.9088   84.1561   15.2607 O.2     1  UNL1       -0.2264
      9 H          64.7136   84.0854   13.1925 H       1  UNL1        0.1527
     10 O          63.7230   82.3050   15.0812 O.3     1  UNL1       -0.4274
     11 C          63.6731   81.1298   14.1504 C.3     1  UNL1        0.2621
     12 C          63.7003   81.3467   12.6664 C.ar    1  UNL1        0.1323
     13 N          64.6782   82.2036   11.9184 N.ar    1  UNL1       -0.2374
     14 C          64.3367   82.1314   10.4596 C.ar    1  UNL1        0.1062
     15 C          63.1476   81.2299   10.3060 C.ar    1  UNL1        0.0573
     16 S          62.7543   80.7450   11.6699 S.2     1  UNL1       -0.0666
     17 C          62.0010   85.8259   12.4756 C.3     1  UNL1        0.0211
     18 C          61.9240   85.7806   10.9783 C.3     1  UNL1        0.0017
     19 C          60.7015   86.2906   10.2744 C.3     1  UNL1        0.0001
     20 C          60.6245   86.2453    8.7771 C.3     1  UNL1        0.0000
     21 C          61.7700   85.6901    7.9836 C.3     1  UNL1        0.0000
     22 C          62.9925   85.1801    8.6875 C.3     1  UNL1        0.0000
     23 C          63.0695   85.2254   10.1849 C.3     1  UNL1        0.0001
     24 C          64.2954   89.1512   14.8728 C.3     1  UNL1        0.0920
     25 C          63.7562   90.0824   13.8278 C.3     1  UNL1        0.0907
     26 N          64.6842   91.0049   13.0945 N.am    1  UNL1       -0.2709
     27 C          65.3815   92.1094   13.8321 C.2     1  UNL1        0.4020
     28 O          65.1507   92.2913   15.3031 O.2     1  UNL1       -0.2264
     29 H          64.8357   90.8855   12.1291 H       1  UNL1        0.1527
     30 O          66.3095   93.0319   13.0989 O.3     1  UNL1       -0.4291
     31 C          66.7254   92.7153   11.6929 C.3     1  UNL1        0.2447
     32 C          66.8983   93.8217   10.6948 C.ar    1  UNL1        0.0714
     33 C          67.6105   93.7185    9.3786 C.ar    1  UNL1        0.1053
     34 N          67.5417   95.0584    8.7080 N.ar    1  UNL1       -0.2350
     35 C          66.7871   95.9898    9.6098 C.ar    1  UNL1        0.1343
     36 S          66.3894   95.2255   10.8376 S.2     1  UNL1       -0.0652
     37 C          62.2889   90.0911   13.5161 C.3     1  UNL1        0.0211
     38 C          61.8226   89.9468   12.0978 C.3     1  UNL1        0.0017
     39 C          62.7921   89.5424   11.0270 C.3     1  UNL1        0.0001
     40 C          62.3258   89.3981    9.6087 C.3     1  UNL1        0.0000
     41 C          60.8900   89.6582    9.2611 C.3     1  UNL1        0.0000
     42 C          59.9205   90.0626   10.3318 C.3     1  UNL1        0.0000
     43 C          60.3868   90.2069   11.7502 C.3     1  UNL1        0.0001
@<TRIPOS>BOND
     1     2     3    1
     2     3     1    1
     3     1    24    1
     4    24    25    1
     5    25    37    1
     6    37    38    1
     7    38    39    1
     8    39    40    1
     9    40    41    1
    10    41    42    1
    11    42    43    1
    12    25    26    1
    13    26    27   am
    14    27    28    2
    15    27    30    1
    16    30    31    1
    17    31    32    1
    18    32    33   ar
    19    33    34   ar
    20    34    35   ar
    21    35    36   ar
    22     1     4    1
    23     4     5    1
    24     5    17    1
    25    17    18    1
    26    18    19    1
    27    19    20    1
    28    20    21    1
    29    21    22    1
    30    22    23    1
    31     5     6    1
    32     6     7   am
    33     7     8    2
    34     7    10    1
    35    10    11    1
    36    11    12    1
    37    12    13   ar
    38    13    14   ar
    39    14    15   ar
    40    15    16   ar
    41    43    38    1
    42    36    32   ar
    43    23    18    1
    44    16    12   ar
    45    26    29    1
    46     6     9    1
