@<TRIPOS>MOLECULE
*****
 24 28 0 0 0
SMALL
GASTEIGER

@<TRIPOS>ATOM
      1 O          61.8486   90.0334    9.7567 O.2     1  UNL1       -0.2636
      2 C          62.4034   89.1764   10.8557 C.ar    1  UNL1        0.2955
      3 C          63.1991   89.7998   11.9639 C.ar    1  UNL1        0.2051
      4 N          63.5970   91.2199   12.2378 N.ar    1  UNL1       -0.2206
      5 C          64.3976   91.2405   13.5061 C.ar    1  UNL1        0.1197
      6 C          64.4946   89.8332   14.0160 C.ar    1  UNL1        0.1023
      7 N          63.7539   88.9428   13.0629 N.ar    1  UNL1       -0.2835
      8 C          63.5129   87.4623   13.0536 C.ar    1  UNL1        0.0836
      9 C          64.0677   86.6052   14.1526 C.ar    1  UNL1        0.0486
     10 C          63.8267   85.1248   14.1434 C.ar    1  UNL1        0.1416
     11 F          64.3815   84.2677   15.2424 F       1  UNL1       -0.2041
     12 C          63.0309   84.5013   13.0352 C.ar    1  UNL1        0.0291
     13 C          62.4762   85.3583   11.9363 C.ar    1  UNL1        0.0210
     14 C          62.7171   86.8389   11.9455 C.ar    1  UNL1        0.0788
     15 N          62.1624   87.6959   10.8466 N.ar    1  UNL1       -0.2935
     16 C          62.7899   83.0208   13.0260 C.ar    1  UNL1        0.0053
     17 C          63.2522   82.1929   11.8637 C.ar    1  UNL1        0.0208
     18 C          63.0113   80.7125   11.8545 C.ar    1  UNL1        0.0989
     19 N          62.3080   80.0598   13.0075 N.ar    1  UNL1       -0.2423
     20 C          61.8457   80.8877   14.1698 C.ar    1  UNL1        0.0989
     21 C          62.0867   82.3682   14.1790 C.ar    1  UNL1        0.0208
     22 C          61.3666   87.0724    9.7383 C.3     1  UNL1        0.0886
     23 C          61.2847   86.1526    8.5564 C.3     1  UNL1        0.0246
     24 C          60.0702   86.9125    9.0009 C.3     1  UNL1        0.0246
@<TRIPOS>BOND
     1     1     2    2
     2     2     3   ar
     3     3     4   ar
     4     4     5   ar
     5     5     6   ar
     6     6     7   ar
     7     7     8   ar
     8     8     9   ar
     9     9    10   ar
    10    10    11    1
    11    10    12   ar
    12    12    16    1
    13    16    17   ar
    14    17    18   ar
    15    18    19   ar
    16    19    20   ar
    17    20    21   ar
    18    12    13   ar
    19    13    14   ar
    20    14    15   ar
    21    15    22    1
    22    22    23    1
    23    23    24    1
    24    15     2   ar
    25    24    22    1
    26     7     3   ar
    27    14     8   ar
    28    21    16   ar
@<TRIPOS>MOLECULE
*****
 24 28 0 0 0
SMALL
GASTEIGER

@<TRIPOS>ATOM
      1 O          62.4544   84.0765   12.1379 O.2     1  UNL1       -0.2636
      2 C          62.5520   85.5617   11.9511 C.ar    1  UNL1        0.2955
      3 C          61.8906   86.2147   10.7738 C.ar    1  UNL1        0.2051
      4 N          61.0803   85.6574    9.6412 N.ar    1  UNL1       -0.2206
      5 C          60.6772   86.7982    8.7545 C.ar    1  UNL1        0.1197
      6 C          61.2384   88.0605    9.3391 C.ar    1  UNL1        0.1023
      7 N          61.9882   87.6999   10.5872 N.ar    1  UNL1       -0.2835
      8 C          62.7474   88.5320   11.5778 C.ar    1  UNL1        0.0836
      9 C          62.8451   90.0171   11.3911 C.ar    1  UNL1        0.0486
     10 C          63.6042   90.8492   12.3817 C.ar    1  UNL1        0.1416
     11 F          63.7019   92.3344   12.1949 F       1  UNL1       -0.2041
     12 C          64.2657   90.1962   13.5589 C.ar    1  UNL1        0.0291
     13 C          64.1681   88.7111   13.7456 C.ar    1  UNL1        0.0210
     14 C          63.4089   87.8789   12.7550 C.ar    1  UNL1        0.0788
     15 N          63.3112   86.3939   12.9417 N.ar    1  UNL1       -0.2935
     16 C          65.0249   91.0284   14.5495 C.ar    1  UNL1        0.0053
     17 C          64.3504   91.5050   15.8016 C.ar    1  UNL1        0.0208
     18 C          65.1094   92.3372   16.7922 C.ar    1  UNL1        0.0989
     19 N          66.5431   92.6927   16.5307 N.ar    1  UNL1       -0.2423
     20 C          67.2176   92.2160   15.2786 C.ar    1  UNL1        0.0989
     21 C          66.4584   91.3838   14.2880 C.ar    1  UNL1        0.0208
     22 C          63.9727   85.7408   14.1191 C.3     1  UNL1        0.0886
     23 C          65.0173   84.8199   14.6764 C.3     1  UNL1        0.0246
     24 C          64.0739   85.5307   15.6008 C.3     1  UNL1        0.0246
@<TRIPOS>BOND
     1     1     2    2
     2     2     3   ar
     3     3     4   ar
     4     4     5   ar
     5     5     6   ar
     6     6     7   ar
     7     7     8   ar
     8     8     9   ar
     9     9    10   ar
    10    10    11    1
    11    10    12   ar
    12    12    16    1
    13    16    17   ar
    14    17    18   ar
    15    18    19   ar
    16    19    20   ar
    17    20    21   ar
    18    12    13   ar
    19    13    14   ar
    20    14    15   ar
    21    15    22    1
    22    22    23    1
    23    23    24    1
    24    15     2   ar
    25    24    22    1
    26     7     3   ar
    27    14     8   ar
    28    21    16   ar
@<TRIPOS>MOLECULE
*****
 24 28 0 0 0
SMALL
GASTEIGER

@<TRIPOS>ATOM
      1 O          61.9532   85.2199   12.3070 O.2     1  UNL1       -0.2636
      2 C          62.3049   86.6601   12.0787 C.ar    1  UNL1        0.2955
      3 C          61.6710   87.4171   10.9494 C.ar    1  UNL1        0.2051
      4 N          60.6731   87.0124    9.9052 N.ar    1  UNL1       -0.2206
      5 C          60.4081   88.2026    9.0315 C.ar    1  UNL1        0.1197
      6 C          61.2421   89.3427    9.5358 C.ar    1  UNL1        0.1023
      7 N          62.0227   88.8573   10.7212 N.ar    1  UNL1       -0.2835
      8 C          63.0082   89.5406   11.6222 C.ar    1  UNL1        0.0836
      9 C          63.3599   90.9808   11.3939 C.ar    1  UNL1        0.0486
     10 C          64.3455   91.6641   12.2949 C.ar    1  UNL1        0.1416
     11 F          64.6971   93.1043   12.0666 F       1  UNL1       -0.2041
     12 C          64.9793   90.9071   13.4241 C.ar    1  UNL1        0.0291
     13 C          64.6277   89.4670   13.6524 C.ar    1  UNL1        0.0210
     14 C          63.6421   88.7836   12.7514 C.ar    1  UNL1        0.0788
     15 N          63.2905   87.3435   12.9797 N.ar    1  UNL1       -0.2935
     16 C          65.9649   91.5905   14.3252 C.ar    1  UNL1        0.0053
     17 C          67.4133   91.6548   13.9405 C.ar    1  UNL1        0.0208
     18 C          68.3989   92.3381   14.8414 C.ar    1  UNL1        0.0989
     19 N          67.9361   92.9571   16.1270 N.ar    1  UNL1       -0.2423
     20 C          66.4877   92.8928   16.5116 C.ar    1  UNL1        0.0989
     21 C          65.5021   92.2095   15.6106 C.ar    1  UNL1        0.0208
     22 C          63.9244   86.5865   14.1090 C.3     1  UNL1        0.0886
     23 C          64.0864   86.3428   15.5801 C.3     1  UNL1        0.0246
     24 C          64.8603   85.5192   14.5938 C.3     1  UNL1        0.0246
@<TRIPOS>BOND
     1     1     2    2
     2     2     3   ar
     3     3     4   ar
     4     4     5   ar
     5     5     6   ar
     6     6     7   ar
     7     7     8   ar
     8     8     9   ar
     9     9    10   ar
    10    10    11    1
    11    10    12   ar
    12    12    16    1
    13    16    17   ar
    14    17    18   ar
    15    18    19   ar
    16    19    20   ar
    17    20    21   ar
    18    12    13   ar
    19    13    14   ar
    20    14    15   ar
    21    15    22    1
    22    22    23    1
    23    23    24    1
    24    15     2   ar
    25    24    22    1
    26     7     3   ar
    27    14     8   ar
    28    21    16   ar
@<TRIPOS>MOLECULE
*****
 24 28 0 0 0
SMALL
GASTEIGER

@<TRIPOS>ATOM
      1 O          64.5943   86.2607   15.9871 O.2     1  UNL1       -0.2636
      2 C          64.0811   87.0089   14.7925 C.ar    1  UNL1        0.2955
      3 C          64.0287   88.5078   14.8119 C.ar    1  UNL1        0.2051
      4 N          64.4115   89.5120   15.8583 N.ar    1  UNL1       -0.2206
      5 C          64.1349   90.8807   15.3104 C.ar    1  UNL1        0.1197
      6 C          63.5811   90.7224   13.9254 C.ar    1  UNL1        0.1023
      7 N          63.5154   89.2558   13.6173 N.ar    1  UNL1       -0.2835
      8 C          63.0546   88.5049   12.4033 C.ar    1  UNL1        0.0836
      9 C          62.5414   89.2530   11.2087 C.ar    1  UNL1        0.0486
     10 C          62.0806   88.5021    9.9947 C.ar    1  UNL1        0.1416
     11 F          61.5674   89.2502    8.8001 F       1  UNL1       -0.2041
     12 C          62.1331   87.0031    9.9753 C.ar    1  UNL1        0.0291
     13 C          62.6462   86.2551   11.1698 C.ar    1  UNL1        0.0210
     14 C          63.1071   87.0060   12.3839 C.ar    1  UNL1        0.0788
     15 N          63.6203   86.2580   13.5784 N.ar    1  UNL1       -0.2935
     16 C          61.6722   86.2522    8.7612 C.ar    1  UNL1        0.0053
     17 C          62.6420   85.4080    7.9887 C.ar    1  UNL1        0.0208
     18 C          62.1812   84.6571    6.7747 C.ar    1  UNL1        0.0989
     19 N          60.7507   84.7505    6.3332 N.ar    1  UNL1       -0.2423
     20 C          59.7810   85.5947    7.1057 C.ar    1  UNL1        0.0989
     21 C          60.2418   86.3456    8.3198 C.ar    1  UNL1        0.0208
     22 C          63.6727   84.7589   13.5590 C.3     1  UNL1        0.0886
     23 C          63.1166   83.4341   13.9894 C.3     1  UNL1        0.0246
     24 C          64.3196   83.4876   13.0950 C.3     1  UNL1        0.0246
@<TRIPOS>BOND
     1     1     2    2
     2     2     3   ar
     3     3     4   ar
     4     4     5   ar
     5     5     6   ar
     6     6     7   ar
     7     7     8   ar
     8     8     9   ar
     9     9    10   ar
    10    10    11    1
    11    10    12   ar
    12    12    16    1
    13    16    17   ar
    14    17    18   ar
    15    18    19   ar
    16    19    20   ar
    17    20    21   ar
    18    12    13   ar
    19    13    14   ar
    20    14    15   ar
    21    15    22    1
    22    22    23    1
    23    23    24    1
    24    15     2   ar
    25    24    22    1
    26     7     3   ar
    27    14     8   ar
    28    21    16   ar
