@<TRIPOS>MOLECULE
*****
 29 32 0 0 0
SMALL
GASTEIGER

@<TRIPOS>ATOM
      1 O          63.4646   91.6142   16.4197 O.2     1  UNL1       -0.2719
      2 C          64.1355   90.6558   15.4809 C.2     1  UNL1        0.2569
      3 N          63.9278   89.1790   15.6417 N.am    1  UNL1       -0.2772
      4 C          63.0492   88.6606   16.7413 C.3     1  UNL1        0.0952
      5 C          62.8415   87.1837   16.9021 C.3     1  UNL1        0.0410
      6 C          63.5124   86.2253   15.9632 C.3     1  UNL1        0.0722
      7 C          64.3910   86.7439   14.8635 C.3     1  UNL1        0.0410
      8 C          64.5987   88.2207   14.7027 C.3     1  UNL1        0.0952
      9 C          65.0141   91.1743   14.3812 C.3     1  UNL1        0.2104
     10 O          66.4232   91.5920   14.6809 O.3     1  UNL1       -0.3719
     11 H          66.8495   91.9000   13.8658 H       1  UNL1        0.2114
     12 C          64.4836   91.2750   12.9818 C.ar    1  UNL1        0.0237
     13 C          63.3495   90.3960   12.5444 C.ar    1  UNL1       -0.0006
     14 C          62.8190   90.4968   11.1450 C.ar    1  UNL1       -0.0002
     15 C          63.4226   91.4765   10.1828 C.ar    1  UNL1        0.0008
     16 C          64.5566   92.3555   10.6201 C.ar    1  UNL1        0.0112
     17 C          65.0871   92.2547   12.0196 C.ar    1  UNL1        0.0564
     18 CL         66.2212   93.1338   12.4568 Cl      1  UNL1       -0.0825
     19 N          63.3047   84.7485   16.1240 N.pl3   1  UNL1       -0.3369
     20 H          63.2405   84.3556   17.0245 H       1  UNL1        0.1465
     21 C          63.1947   83.8704   14.9129 C.2     1  UNL1        0.0262
     22 C          62.2307   82.7213   14.9046 C.2     1  UNL1        0.0118
     23 C          62.1208   81.8432   13.6934 C.2     1  UNL1        0.0216
     24 C          62.9750   82.1142   12.4906 C.2     1  UNL1        0.1008
     25 N          63.0858   81.4258   11.1625 N.2     1  UNL1       -0.1482
     26 N          64.1184   82.1494   10.3501 N.2     1  UNL1       -0.1467
     27 C          64.6458   83.2851   11.1760 C.2     1  UNL1        0.1198
     28 C          63.9391   83.2633   12.4989 C.2     1  UNL1        0.0238
     29 C          64.0490   84.1414   13.7100 C.3     1  UNL1        0.0703
@<TRIPOS>BOND
     1     1     2    2
     2     2     9    1
     3     9    10    1
     4     9    12    1
     5    12    13   ar
     6    13    14   ar
     7    14    15   ar
     8    15    16   ar
     9    16    17   ar
    10    17    18    1
    11     2     3   am
    12     3     4    1
    13     4     5    1
    14     5     6    1
    15     6    19    1
    16    19    21    1
    17    21    22    2
    18    22    23    1
    19    23    24    2
    20    24    25    1
    21    25    26    2
    22    26    27    1
    23    27    28    2
    24    28    29    1
    25     6     7    1
    26     7     8    1
    27    17    12   ar
    28     8     3    1
    29    29    21    1
    30    28    24    1
    31    10    11    1
    32    19    20    1
@<TRIPOS>MOLECULE
*****
 29 32 0 0 0
SMALL
GASTEIGER

@<TRIPOS>ATOM
      1 O          61.7899   86.4100   12.1076 O.2     1  UNL1       -0.2719
      2 C          61.8127   87.5817   11.1713 C.2     1  UNL1        0.2569
      3 N          62.6317   88.7930   11.5057 N.am    1  UNL1       -0.2772
      4 C          63.4278   88.8327   12.7763 C.3     1  UNL1        0.0952
      5 C          64.2469   90.0442   13.1107 C.3     1  UNL1        0.0410
      6 C          64.2697   91.2159   12.1744 C.3     1  UNL1        0.0722
      7 C          63.4735   91.1761   10.9038 C.3     1  UNL1        0.0410
      8 C          62.6545   89.9648   10.5694 C.3     1  UNL1        0.0952
      9 C          61.0166   87.5420    9.9006 C.3     1  UNL1        0.2104
     10 O          59.8813   88.5009    9.6966 O.3     1  UNL1       -0.3719
     11 H          59.4758   88.3421    8.8299 H       1  UNL1        0.2114
     12 C          61.3558   86.5434    8.8340 C.ar    1  UNL1        0.0237
     13 C          62.7279   85.9397    8.7806 C.ar    1  UNL1       -0.0006
     14 C          63.0670   84.9412    7.7139 C.ar    1  UNL1       -0.0002
     15 C          62.0340   84.5463    6.7005 C.ar    1  UNL1        0.0008
     16 C          60.6618   85.1499    6.7538 C.ar    1  UNL1        0.0112
     17 C          60.3228   86.1485    7.8206 C.ar    1  UNL1        0.0564
     18 CL         58.9506   86.7522    7.8739 Cl      1  UNL1       -0.0825
     19 N          65.0887   92.4272   12.5089 N.pl3   1  UNL1       -0.3369
     20 H          65.1286   92.7537   13.4368 H       1  UNL1        0.1465
     21 C          65.8470   93.1412   11.4293 C.2     1  UNL1        0.0262
     22 C          66.8839   92.4085   10.6308 C.2     1  UNL1        0.0118
     23 C          67.6421   93.1225    9.5513 C.2     1  UNL1        0.0216
     24 C          67.3633   94.5693    9.2703 C.2     1  UNL1        0.1008
     25 N          67.9471   95.5293    8.2766 N.2     1  UNL1       -0.1482
     26 N          67.2708   96.8555    8.4609 N.2     1  UNL1       -0.1467
     27 C          66.2692   96.7151    9.5687 C.2     1  UNL1        0.1198
     28 C          66.3264   95.3021   10.0689 C.2     1  UNL1        0.0238
     29 C          65.5682   94.5881   11.1484 C.3     1  UNL1        0.0703
@<TRIPOS>BOND
     1     1     2    2
     2     2     9    1
     3     9    10    1
     4     9    12    1
     5    12    13   ar
     6    13    14   ar
     7    14    15   ar
     8    15    16   ar
     9    16    17   ar
    10    17    18    1
    11     2     3   am
    12     3     4    1
    13     4     5    1
    14     5     6    1
    15     6    19    1
    16    19    21    1
    17    21    22    2
    18    22    23    1
    19    23    24    2
    20    24    25    1
    21    25    26    2
    22    26    27    1
    23    27    28    2
    24    28    29    1
    25     6     7    1
    26     7     8    1
    27    17    12   ar
    28     8     3    1
    29    29    21    1
    30    28    24    1
    31    10    11    1
    32    19    20    1
@<TRIPOS>MOLECULE
*****
 29 32 0 0 0
SMALL
GASTEIGER

@<TRIPOS>ATOM
      1 O          62.8343   84.2216   16.7190 O.2     1  UNL1       -0.2719
      2 C          63.6637   84.9548   15.7068 C.2     1  UNL1        0.2569
      3 N          63.6954   86.4544   15.7076 N.am    1  UNL1       -0.2772
      4 C          62.8978   87.2209   16.7205 C.3     1  UNL1        0.0952
      5 C          62.9296   88.7206   16.7213 C.3     1  UNL1        0.0410
      6 C          63.7589   89.4538   15.7091 C.3     1  UNL1        0.0722
      7 C          64.5566   88.6872   14.6960 C.3     1  UNL1        0.0410
      8 C          64.5248   87.1875   14.6952 C.3     1  UNL1        0.0952
      9 C          64.4613   84.1882   14.6937 C.3     1  UNL1        0.2104
     10 O          65.9381   84.4205   14.5702 O.3     1  UNL1       -0.3719
     11 H          66.2981   83.8492   13.8739 H       1  UNL1        0.2114
     12 C          63.7822   83.1895   13.8042 C.ar    1  UNL1        0.0237
     13 C          63.7719   81.7369   14.1782 C.ar    1  UNL1       -0.0006
     14 C          63.0928   80.7382   13.2886 C.ar    1  UNL1       -0.0002
     15 C          62.4239   81.1920   12.0250 C.ar    1  UNL1        0.0008
     16 C          62.4342   82.6446   11.6509 C.ar    1  UNL1        0.0112
     17 C          63.1134   83.6433   12.5406 C.ar    1  UNL1        0.0564
     18 CL         63.1237   85.0959   12.1665 Cl      1  UNL1       -0.0825
     19 N          63.7907   90.9534   15.7099 N.pl3   1  UNL1       -0.3369
     20 H          63.2398   91.4571   16.3518 H       1  UNL1        0.1465
     21 C          64.6618   91.6856   14.7326 C.2     1  UNL1        0.0262
     22 C          65.8568   92.4504   15.2195 C.2     1  UNL1        0.0118
     23 C          66.7279   93.1826   14.2422 C.2     1  UNL1        0.0216
     24 C          66.4040   93.1500   12.7779 C.2     1  UNL1        0.1008
     25 N          67.0737   93.7704   11.5878 N.2     1  UNL1       -0.1482
     26 N          66.2926   93.3891   10.3653 N.2     1  UNL1       -0.1467
     27 C          65.1402   92.5330   10.7999 C.2     1  UNL1        0.1198
     28 C          65.2090   92.3852   12.2910 C.2     1  UNL1        0.0238
     29 C          64.3379   91.6530   13.2683 C.3     1  UNL1        0.0703
@<TRIPOS>BOND
     1     1     2    2
     2     2     9    1
     3     9    10    1
     4     9    12    1
     5    12    13   ar
     6    13    14   ar
     7    14    15   ar
     8    15    16   ar
     9    16    17   ar
    10    17    18    1
    11     2     3   am
    12     3     4    1
    13     4     5    1
    14     5     6    1
    15     6    19    1
    16    19    21    1
    17    21    22    2
    18    22    23    1
    19    23    24    2
    20    24    25    1
    21    25    26    2
    22    26    27    1
    23    27    28    2
    24    28    29    1
    25     6     7    1
    26     7     8    1
    27    17    12   ar
    28     8     3    1
    29    29    21    1
    30    28    24    1
    31    10    11    1
    32    19    20    1
@<TRIPOS>MOLECULE
*****
 29 32 0 0 0
SMALL
GASTEIGER

@<TRIPOS>ATOM
      1 O          66.7560   91.3188   14.3106 O.2     1  UNL1       -0.2719
      2 C          65.8650   91.8754   13.2400 C.2     1  UNL1        0.2569
      3 N          64.6266   91.1328   12.8338 N.am    1  UNL1       -0.2772
      4 C          64.2793   89.8337   13.4982 C.3     1  UNL1        0.0952
      5 C          63.0408   89.0910   13.0920 C.3     1  UNL1        0.0410
      6 C          62.1498   89.6476   12.0214 C.3     1  UNL1        0.0722
      7 C          62.4972   90.9468   11.3570 C.3     1  UNL1        0.0410
      8 C          63.7355   91.6894   11.7631 C.3     1  UNL1        0.0952
      9 C          66.2123   93.1746   12.5755 C.3     1  UNL1        0.2104
     10 O          65.8829   94.4734   13.2497 O.3     1  UNL1       -0.3719
     11 H          66.1723   95.2108   12.6900 H       1  UNL1        0.2114
     12 C          66.8890   93.1750   11.2368 C.ar    1  UNL1        0.0237
     13 C          67.8222   92.0601   10.8678 C.ar    1  UNL1       -0.0006
     14 C          68.4988   92.0605    9.5291 C.ar    1  UNL1       -0.0002
     15 C          68.2423   93.1758    8.5594 C.ar    1  UNL1        0.0008
     16 C          67.3091   94.2907    8.9284 C.ar    1  UNL1        0.0112
     17 C          66.6325   94.2902   10.2671 C.ar    1  UNL1        0.0564
     18 CL         65.6993   95.4052   10.6361 Cl      1  UNL1       -0.0825
     19 N          60.9114   88.9050   11.6152 N.pl3   1  UNL1       -0.3369
     20 H          60.0828   89.0071   12.1369 H       1  UNL1        0.1465
     21 C          60.9356   88.0069   10.4140 C.2     1  UNL1        0.0262
     22 C          59.7688   87.9829    9.4718 C.2     1  UNL1        0.0118
     23 C          59.7930   87.0848    8.2706 C.2     1  UNL1        0.0216
     24 C          60.9841   86.2106    8.0117 C.2     1  UNL1        0.1008
     25 N          61.2908   85.2300    6.9188 N.2     1  UNL1       -0.1482
     26 N          62.6473   84.6480    7.1856 N.2     1  UNL1       -0.1467
     27 C          63.1789   85.2688    8.4434 C.2     1  UNL1        0.1198
     28 C          62.1510   86.2345    8.9540 C.2     1  UNL1        0.0238
     29 C          62.1267   87.1327   10.1551 C.3     1  UNL1        0.0703
@<TRIPOS>BOND
     1     1     2    2
     2     2     9    1
     3     9    10    1
     4     9    12    1
     5    12    13   ar
     6    13    14   ar
     7    14    15   ar
     8    15    16   ar
     9    16    17   ar
    10    17    18    1
    11     2     3   am
    12     3     4    1
    13     4     5    1
    14     5     6    1
    15     6    19    1
    16    19    21    1
    17    21    22    2
    18    22    23    1
    19    23    24    2
    20    24    25    1
    21    25    26    2
    22    26    27    1
    23    27    28    2
    24    28    29    1
    25     6     7    1
    26     7     8    1
    27    17    12   ar
    28     8     3    1
    29    29    21    1
    30    28    24    1
    31    10    11    1
    32    19    20    1
@<TRIPOS>MOLECULE
*****
 29 32 0 0 0
SMALL
GASTEIGER

@<TRIPOS>ATOM
      1 O          66.4983   92.3964   14.6336 O.2     1  UNL1       -0.2719
      2 C          65.8367   92.5381   13.2949 C.2     1  UNL1        0.2569
      3 N          64.8294   91.5219   12.8448 N.am    1  UNL1       -0.2772
      4 C          64.4837   90.3641   13.7334 C.3     1  UNL1        0.0952
      5 C          63.4763   89.3478   13.2832 C.3     1  UNL1        0.0410
      6 C          62.8147   89.4895   11.9445 C.3     1  UNL1        0.0722
      7 C          63.1606   90.6474   11.0559 C.3     1  UNL1        0.0410
      8 C          64.1679   91.6637   11.5060 C.3     1  UNL1        0.0952
      9 C          66.1825   93.6960   12.4062 C.3     1  UNL1        0.2104
     10 O          65.7944   95.0892   12.8045 O.3     1  UNL1       -0.3719
     11 H          66.0908   95.7142   12.1245 H       1  UNL1        0.2114
     12 C          66.9163   93.4608   11.1193 C.ar    1  UNL1        0.0237
     13 C          67.7383   92.2189   10.9407 C.ar    1  UNL1       -0.0006
     14 C          68.4721   91.9837    9.6538 C.ar    1  UNL1       -0.0002
     15 C          68.3840   92.9905    8.5454 C.ar    1  UNL1        0.0008
     16 C          67.5620   94.2325    8.7239 C.ar    1  UNL1        0.0112
     17 C          66.8281   94.4676   10.0109 C.ar    1  UNL1        0.0564
     18 CL         66.0062   95.7096   10.1893 Cl      1  UNL1       -0.0825
     19 N          61.8074   88.4733   11.4944 N.pl3   1  UNL1       -0.3369
     20 H          60.8472   88.6898   11.5140 H       1  UNL1        0.1465
     21 C          62.2632   87.1271   11.0145 C.2     1  UNL1        0.0262
     22 C          62.3538   86.8463    9.5439 C.2     1  UNL1        0.0118
     23 C          62.8095   85.5002    9.0640 C.2     1  UNL1        0.0216
     24 C          63.1746   84.4349   10.0548 C.2     1  UNL1        0.1008
     25 N          63.6533   83.0240    9.8809 N.2     1  UNL1       -0.1482
     26 N          63.8586   82.4328   11.2441 N.2     1  UNL1       -0.1467
     27 C          63.5067   83.4783   12.2606 C.2     1  UNL1        0.1198
     28 C          63.0840   84.7157   11.5255 C.2     1  UNL1        0.0238
     29 C          62.6282   86.0618   12.0054 C.3     1  UNL1        0.0703
@<TRIPOS>BOND
     1     1     2    2
     2     2     9    1
     3     9    10    1
     4     9    12    1
     5    12    13   ar
     6    13    14   ar
     7    14    15   ar
     8    15    16   ar
     9    16    17   ar
    10    17    18    1
    11     2     3   am
    12     3     4    1
    13     4     5    1
    14     5     6    1
    15     6    19    1
    16    19    21    1
    17    21    22    2
    18    22    23    1
    19    23    24    2
    20    24    25    1
    21    25    26    2
    22    26    27    1
    23    27    28    2
    24    28    29    1
    25     6     7    1
    26     7     8    1
    27    17    12   ar
    28     8     3    1
    29    29    21    1
    30    28    24    1
    31    10    11    1
    32    19    20    1
@<TRIPOS>MOLECULE
*****
 29 32 0 0 0
SMALL
GASTEIGER

@<TRIPOS>ATOM
      1 O          63.1416   91.3561   16.7952 O.2     1  UNL1       -0.2719
      2 C          63.7028   90.5502   15.6614 C.2     1  UNL1        0.2569
      3 N          63.7166   89.0524   15.7408 N.am    1  UNL1       -0.2772
      4 C          63.1694   88.3605   16.9539 C.3     1  UNL1        0.0952
      5 C          63.1832   86.8626   17.0332 C.3     1  UNL1        0.0410
      6 C          63.7444   86.0566   15.8994 C.3     1  UNL1        0.0722
      7 C          64.2917   86.7486   14.6862 C.3     1  UNL1        0.0410
      8 C          64.2778   88.2464   14.6069 C.3     1  UNL1        0.0952
      9 C          64.2501   91.2421   14.4482 C.3     1  UNL1        0.2104
     10 O          63.3617   91.5007   13.2676 O.3     1  UNL1       -0.3719
     11 H          63.8682   91.9525   12.5746 H       1  UNL1        0.2114
     12 C          65.6858   91.6753   14.4157 C.ar    1  UNL1        0.0237
     13 C          66.4743   91.7550   15.6892 C.ar    1  UNL1       -0.0006
     14 C          67.9100   92.1882   15.6565 C.ar    1  UNL1       -0.0002
     15 C          68.5572   92.5417   14.3504 C.ar    1  UNL1        0.0008
     16 C          67.7688   92.4621   13.0768 C.ar    1  UNL1        0.0112
     17 C          66.3330   92.0288   13.1095 C.ar    1  UNL1        0.0564
     18 CL         65.5446   91.9492   11.8359 Cl      1  UNL1       -0.0825
     19 N          63.7582   84.5588   15.9788 N.pl3   1  UNL1       -0.3369
     20 H          63.9191   84.1131   16.8417 H       1  UNL1        0.1465
     21 C          63.5270   83.7402   14.7432 C.2     1  UNL1        0.0262
     22 C          62.4751   82.6711   14.7379 C.2     1  UNL1        0.0118
     23 C          62.2439   81.8524   13.5024 C.2     1  UNL1        0.0216
     24 C          63.0648   82.1030   12.2722 C.2     1  UNL1        0.1008
     25 N          63.0635   81.4607   10.9167 N.2     1  UNL1       -0.1482
     26 N          64.1148   82.1330   10.0843 N.2     1  UNL1       -0.1467
     27 C          64.7658   83.1907   10.9254 C.2     1  UNL1        0.1198
     28 C          64.1168   83.1722   12.2776 C.2     1  UNL1        0.0238
     29 C          64.3480   83.9908   13.5131 C.3     1  UNL1        0.0703
@<TRIPOS>BOND
     1     1     2    2
     2     2     9    1
     3     9    10    1
     4     9    12    1
     5    12    13   ar
     6    13    14   ar
     7    14    15   ar
     8    15    16   ar
     9    16    17   ar
    10    17    18    1
    11     2     3   am
    12     3     4    1
    13     4     5    1
    14     5     6    1
    15     6    19    1
    16    19    21    1
    17    21    22    2
    18    22    23    1
    19    23    24    2
    20    24    25    1
    21    25    26    2
    22    26    27    1
    23    27    28    2
    24    28    29    1
    25     6     7    1
    26     7     8    1
    27    17    12   ar
    28     8     3    1
    29    29    21    1
    30    28    24    1
    31    10    11    1
    32    19    20    1
@<TRIPOS>MOLECULE
*****
 29 32 0 0 0
SMALL
GASTEIGER

@<TRIPOS>ATOM
      1 O          64.2793   92.4100   10.1051 O.2     1  UNL1       -0.2719
      2 C          65.1906   92.3660   11.2957 C.2     1  UNL1        0.2569
      3 N          64.7905   91.5946   12.5183 N.am    1  UNL1       -0.2772
      4 C          63.4791   90.8672   12.5504 C.3     1  UNL1        0.0952
      5 C          63.0790   90.0958   13.7731 C.3     1  UNL1        0.0410
      6 C          63.9903   90.0517   14.9637 C.3     1  UNL1        0.0722
      7 C          65.3018   90.7792   14.9316 C.3     1  UNL1        0.0410
      8 C          65.7019   91.5506   13.7090 C.3     1  UNL1        0.0952
      9 C          66.5021   93.0933   11.2637 C.3     1  UNL1        0.2104
     10 O          67.6707   92.5674   12.0432 O.3     1  UNL1       -0.3719
     11 H          68.4345   93.1512   11.9143 H       1  UNL1        0.2114
     12 C          66.6449   94.3467   10.4521 C.ar    1  UNL1        0.0237
     13 C          65.9429   95.6014   10.8799 C.ar    1  UNL1       -0.0006
     14 C          66.0858   96.8547   10.0682 C.ar    1  UNL1       -0.0002
     15 C          66.9307   96.8534    8.8288 C.ar    1  UNL1        0.0008
     16 C          67.6327   95.5987    8.4010 C.ar    1  UNL1        0.0112
     17 C          67.4898   94.3454    9.2127 C.ar    1  UNL1        0.0564
     18 CL         68.1918   93.0907    8.7848 Cl      1  UNL1       -0.0825
     19 N          63.5902   89.2803   16.1863 N.pl3   1  UNL1       -0.3369
     20 H          63.4208   89.7531   17.0331 H       1  UNL1        0.1465
     21 C          63.4481   87.7886   16.1187 C.2     1  UNL1        0.0262
     22 C          62.6132   87.0678   17.1351 C.2     1  UNL1        0.0118
     23 C          62.4711   85.5760   17.0675 C.2     1  UNL1        0.0216
     24 C          63.1641   84.8051   15.9833 C.2     1  UNL1        0.1008
     25 N          63.2085   83.3400   15.6650 N.2     1  UNL1       -0.1482
     26 N          64.0710   83.1553   14.4517 N.2     1  UNL1       -0.1467
     27 C          64.5596   84.5062   14.0202 C.2     1  UNL1        0.1198
     28 C          63.9991   85.5259   14.9668 C.2     1  UNL1        0.0238
     29 C          64.1411   87.0176   15.0345 C.3     1  UNL1        0.0703
@<TRIPOS>BOND
     1     1     2    2
     2     2     9    1
     3     9    10    1
     4     9    12    1
     5    12    13   ar
     6    13    14   ar
     7    14    15   ar
     8    15    16   ar
     9    16    17   ar
    10    17    18    1
    11     2     3   am
    12     3     4    1
    13     4     5    1
    14     5     6    1
    15     6    19    1
    16    19    21    1
    17    21    22    2
    18    22    23    1
    19    23    24    2
    20    24    25    1
    21    25    26    2
    22    26    27    1
    23    27    28    2
    24    28    29    1
    25     6     7    1
    26     7     8    1
    27    17    12   ar
    28     8     3    1
    29    29    21    1
    30    28    24    1
    31    10    11    1
    32    19    20    1
@<TRIPOS>MOLECULE
*****
 29 32 0 0 0
SMALL
GASTEIGER

@<TRIPOS>ATOM
      1 O          62.0093   84.7758   10.9603 O.2     1  UNL1       -0.2719
      2 C          62.8405   85.2279   12.1242 C.2     1  UNL1        0.2569
      3 N          63.0239   86.6925   12.3908 N.am    1  UNL1       -0.2772
      4 C          62.3761   87.7051   11.4937 C.3     1  UNL1        0.0952
      5 C          62.5595   89.1698   11.7604 C.3     1  UNL1        0.0410
      6 C          63.3907   89.6219   12.9243 C.3     1  UNL1        0.0722
      7 C          64.0385   88.6093   13.8215 C.3     1  UNL1        0.0410
      8 C          63.8552   87.1446   13.5548 C.3     1  UNL1        0.0952
      9 C          63.4884   84.2153   13.0214 C.3     1  UNL1        0.2104
     10 O          64.6970   84.5909   13.8265 O.3     1  UNL1       -0.3719
     11 H          64.9882   83.8268   14.3483 H       1  UNL1        0.2114
     12 C          62.9276   82.8272   13.1136 C.ar    1  UNL1        0.0237
     13 C          62.0088   82.4628   14.2420 C.ar    1  UNL1       -0.0006
     14 C          61.4481   81.0746   14.3341 C.ar    1  UNL1       -0.0002
     15 C          61.8060   80.0508   13.2980 C.ar    1  UNL1        0.0008
     16 C          62.7248   80.4151   12.1696 C.ar    1  UNL1        0.0112
     17 C          63.2856   81.8033   12.0775 C.ar    1  UNL1        0.0564
     18 CL         64.2043   82.1676   10.9492 Cl      1  UNL1       -0.0825
     19 N          63.5741   91.0866   13.1909 N.pl3   1  UNL1       -0.3369
     20 H          62.7967   91.6905   13.1773 H       1  UNL1        0.1465
     21 C          64.9419   91.6310   13.4783 C.2     1  UNL1        0.0262
     22 C          65.8193   92.0882   12.3510 C.2     1  UNL1        0.0118
     23 C          67.1872   92.6327   12.6384 C.2     1  UNL1        0.0216
     24 C          67.6776   92.7199   14.0533 C.2     1  UNL1        0.1008
     25 N          68.9691   93.2080   14.6397 N.2     1  UNL1       -0.1482
     26 N          68.8898   93.0525   16.1295 N.2     1  UNL1       -0.1467
     27 C          67.5493   92.4682   16.4639 C.2     1  UNL1        0.1198
     28 C          66.8001   92.2627   15.1807 C.2     1  UNL1        0.0238
     29 C          65.4323   91.7182   14.8932 C.3     1  UNL1        0.0703
@<TRIPOS>BOND
     1     1     2    2
     2     2     9    1
     3     9    10    1
     4     9    12    1
     5    12    13   ar
     6    13    14   ar
     7    14    15   ar
     8    15    16   ar
     9    16    17   ar
    10    17    18    1
    11     2     3   am
    12     3     4    1
    13     4     5    1
    14     5     6    1
    15     6    19    1
    16    19    21    1
    17    21    22    2
    18    22    23    1
    19    23    24    2
    20    24    25    1
    21    25    26    2
    22    26    27    1
    23    27    28    2
    24    28    29    1
    25     6     7    1
    26     7     8    1
    27    17    12   ar
    28     8     3    1
    29    29    21    1
    30    28    24    1
    31    10    11    1
    32    19    20    1
@<TRIPOS>MOLECULE
*****
 29 32 0 0 0
SMALL
GASTEIGER

@<TRIPOS>ATOM
      1 O          66.9826   91.8316   15.3544 O.2     1  UNL1       -0.2719
      2 C          66.5851   91.7873   13.9087 C.2     1  UNL1        0.2569
      3 N          65.2431   91.2444   13.5162 N.am    1  UNL1       -0.2772
      4 C          64.2985   90.7459   14.5692 C.3     1  UNL1        0.0952
      5 C          62.9563   90.2030   14.1766 C.3     1  UNL1        0.0410
      6 C          62.5589   90.1587   12.7309 C.3     1  UNL1        0.0722
      7 C          63.5036   90.6573   11.6778 C.3     1  UNL1        0.0410
      8 C          64.8457   91.2001   12.0704 C.3     1  UNL1        0.0952
      9 C          67.5298   92.2858   12.8556 C.3     1  UNL1        0.2104
     10 O          68.9267   91.7439   12.7838 O.3     1  UNL1       -0.3719
     11 H          69.4011   92.1689   12.0522 H       1  UNL1        0.2114
     12 C          67.0776   93.3263   11.8743 C.ar    1  UNL1        0.0237
     13 C          66.3707   94.5574   12.3587 C.ar    1  UNL1       -0.0006
     14 C          65.9186   95.5977   11.3773 C.ar    1  UNL1       -0.0002
     15 C          66.1733   95.4071    9.9115 C.ar    1  UNL1        0.0008
     16 C          66.8802   94.1760    9.4269 C.ar    1  UNL1        0.0112
     17 C          67.3323   93.1356   10.4084 C.ar    1  UNL1        0.0564
     18 CL         68.0393   91.9045    9.9239 Cl      1  UNL1       -0.0825
     19 N          61.2168   89.6158   12.3383 N.pl3   1  UNL1       -0.3369
     20 H          60.4065   89.9198   12.8075 H       1  UNL1        0.1465
     21 C          61.1095   88.6098   11.2308 C.2     1  UNL1        0.0262
     22 C          62.0517   87.4438   11.1828 C.2     1  UNL1        0.0118
     23 C          61.9444   86.4378   10.0753 C.2     1  UNL1        0.0216
     24 C          60.8948   86.5980    9.0158 C.2     1  UNL1        0.1008
     25 N          60.5508   85.7732    7.8110 N.2     1  UNL1       -0.1482
     26 N          59.3958   86.4296    7.1144 N.2     1  UNL1       -0.1467
     27 C          59.0261   87.6601    7.8886 C.2     1  UNL1        0.1198
     28 C          59.9526   87.7641    9.0637 C.2     1  UNL1        0.0238
     29 C          60.0599   88.7700   10.1712 C.3     1  UNL1        0.0703
@<TRIPOS>BOND
     1     1     2    2
     2     2     9    1
     3     9    10    1
     4     9    12    1
     5    12    13   ar
     6    13    14   ar
     7    14    15   ar
     8    15    16   ar
     9    16    17   ar
    10    17    18    1
    11     2     3   am
    12     3     4    1
    13     4     5    1
    14     5     6    1
    15     6    19    1
    16    19    21    1
    17    21    22    2
    18    22    23    1
    19    23    24    2
    20    24    25    1
    21    25    26    2
    22    26    27    1
    23    27    28    2
    24    28    29    1
    25     6     7    1
    26     7     8    1
    27    17    12   ar
    28     8     3    1
    29    29    21    1
    30    28    24    1
    31    10    11    1
    32    19    20    1
