@<TRIPOS>MOLECULE
*****
 32 35 0 0 0
SMALL
GASTEIGER

@<TRIPOS>ATOM
      1 C          63.8131   87.7391   13.5099 C.ar    1  UNL1        0.0172
      2 C          63.2795   88.5261   12.3498 C.ar    1  UNL1        0.0028
      3 C          63.5323   90.0022   12.2650 C.ar    1  UNL1        0.0159
      4 C          64.3188   90.6914   13.3405 C.ar    1  UNL1        0.0648
      5 C          64.8525   89.9044   14.5006 C.ar    1  UNL1        0.0159
      6 C          64.5996   88.4282   14.5853 C.ar    1  UNL1        0.0028
      7 N          62.7392   80.7886   14.5909 N.pl3   1  UNL1       -0.3399
      8 C          62.7533   81.8586   13.5398 C.ar    1  UNL1        0.1680
      9 N          62.4685   81.6642   12.0800 N.ar    1  UNL1       -0.1302
     10 N          62.5938   82.9964   11.4019 N.ar    1  UNL1       -0.1275
     11 C          62.9561   84.0140   12.4427 C.ar    1  UNL1        0.1827
     12 N          63.2089   85.4901   12.3580 N.ar    1  UNL1       -0.3346
     13 C          63.5603   86.2630   13.5946 C.ar    1  UNL1        0.0771
     14 C          63.6589   85.5598   14.9158 C.ar    1  UNL1        0.1160
     15 N          63.4060   84.0837   15.0006 N.ar    1  UNL1       -0.2364
     16 C          63.0546   83.3108   13.7640 C.ar    1  UNL1        0.1496
     17 H          62.5287   79.8590   14.3443 H       1  UNL1        0.1438
     18 H          62.9405   81.0159   15.5274 H       1  UNL1        0.1438
     19 H          63.1442   85.9516   11.4908 H       1  UNL1        0.1675
     20 N          64.5716   92.1675   13.2558 N.pl3   1  UNL1       -0.2149
     21 H          64.1431   92.7779   13.8983 H       1  UNL1        0.1737
     22 S          65.4774   92.7134   12.1920 S.O2    1  UNL1        0.0758
     23 O          66.5564   92.9151   13.2143 O.2     1  UNL1       -0.1499
     24 O          64.3984   92.5117   11.1697 O.2     1  UNL1       -0.1499
     25 C          66.3831   93.2594   11.1283 C.ar    1  UNL1        0.1533
     26 C          67.2499   92.3299   10.3317 C.ar    1  UNL1        0.0339
     27 C          68.1556   92.8759    9.2679 C.ar    1  UNL1        0.0592
     28 CL         69.0224   91.9463    8.4713 Cl      1  UNL1       -0.0822
     29 C          68.1946   94.3513    9.0008 C.ar    1  UNL1        0.0138
     30 C          67.3279   95.2808    9.7975 C.ar    1  UNL1        0.0319
     31 C          66.4221   94.7349   10.8612 C.ar    1  UNL1        0.1589
     32 F          65.5553   95.6645   11.6579 F       1  UNL1       -0.2027
@<TRIPOS>BOND
     1     7     8    1
     2     8     9   ar
     3     9    10   ar
     4    10    11   ar
     5    11    12   ar
     6    12    13   ar
     7    13     1    1
     8     1     2   ar
     9     2     3   ar
    10     3     4   ar
    11     4    20    1
    12    20    22    1
    13    22    23    2
    14    22    24    2
    15    22    25    1
    16    25    26   ar
    17    26    27   ar
    18    27    28    1
    19    27    29   ar
    20    29    30   ar
    21    30    31   ar
    22    31    32    1
    23     4     5   ar
    24     5     6   ar
    25    13    14   ar
    26    14    15   ar
    27    15    16   ar
    28    16     8   ar
    29    16    11    1
    30     6     1   ar
    31    31    25   ar
    32     7    17    1
    33     7    18    1
    34    12    19    1
    35    20    21    1
@<TRIPOS>MOLECULE
*****
 32 35 0 0 0
SMALL
GASTEIGER

@<TRIPOS>ATOM
      1 C          63.5549   87.6937   13.0286 C.ar    1  UNL1        0.0172
      2 C          64.3387   88.3354   14.1350 C.ar    1  UNL1        0.0028
      3 C          64.5946   89.8132   14.1135 C.ar    1  UNL1        0.0159
      4 C          64.0667   90.6495   12.9856 C.ar    1  UNL1        0.0648
      5 C          63.2830   90.0078   11.8792 C.ar    1  UNL1        0.0159
      6 C          63.0271   88.5299   11.9007 C.ar    1  UNL1        0.0028
      7 N          62.1082   80.7482   12.4816 N.pl3   1  UNL1       -0.3399
      8 C          62.6446   81.8002   13.4066 C.ar    1  UNL1        0.1680
      9 N          63.1325   81.5770   14.8074 N.ar    1  UNL1       -0.1302
     10 N          63.5767   82.8990   15.3596 N.ar    1  UNL1       -0.1275
     11 C          63.3634   83.9392   14.3002 C.ar    1  UNL1        0.1827
     12 N          63.6192   85.4171   14.2787 N.ar    1  UNL1       -0.3346
     13 C          63.2991   86.2158   13.0502 C.ar    1  UNL1        0.0771
     14 C          62.7230   85.5367   11.8431 C.ar    1  UNL1        0.1160
     15 N          62.4671   84.0589   11.8646 N.ar    1  UNL1       -0.2364
     16 C          62.7873   83.2602   13.0932 C.ar    1  UNL1        0.1496
     17 H          62.0534   79.8117   12.7803 H       1  UNL1        0.1438
     18 H          61.8109   80.9943   11.5759 H       1  UNL1        0.1438
     19 H          63.9973   85.8628   15.0710 H       1  UNL1        0.1675
     20 N          64.3226   92.1273   12.9641 N.pl3   1  UNL1       -0.2149
     21 H          63.8516   92.7176   13.5956 H       1  UNL1        0.1737
     22 S          65.2961   92.7057   11.9803 S.O2    1  UNL1        0.0758
     23 O          64.2889   92.5334   10.8822 O.2     1  UNL1       -0.1499
     24 O          66.3034   92.8779   13.0784 O.2     1  UNL1       -0.1499
     25 C          66.2697   93.2840   10.9966 C.ar    1  UNL1        0.1533
     26 C          67.2020   92.3810   10.2447 C.ar    1  UNL1        0.0339
     27 C          68.1755   92.9594    9.2610 C.ar    1  UNL1        0.0592
     28 CL         69.1079   92.0563    8.5091 Cl      1  UNL1       -0.0822
     29 C          68.2167   94.4408    9.0291 C.ar    1  UNL1        0.0138
     30 C          67.2844   95.3438    9.7810 C.ar    1  UNL1        0.0319
     31 C          66.3109   94.7654   10.7647 C.ar    1  UNL1        0.1589
     32 F          65.3785   95.6685   11.5166 F       1  UNL1       -0.2027
@<TRIPOS>BOND
     1     7     8    1
     2     8     9   ar
     3     9    10   ar
     4    10    11   ar
     5    11    12   ar
     6    12    13   ar
     7    13     1    1
     8     1     2   ar
     9     2     3   ar
    10     3     4   ar
    11     4    20    1
    12    20    22    1
    13    22    23    2
    14    22    24    2
    15    22    25    1
    16    25    26   ar
    17    26    27   ar
    18    27    28    1
    19    27    29   ar
    20    29    30   ar
    21    30    31   ar
    22    31    32    1
    23     4     5   ar
    24     5     6   ar
    25    13    14   ar
    26    14    15   ar
    27    15    16   ar
    28    16     8   ar
    29    16    11    1
    30     6     1   ar
    31    31    25   ar
    32     7    17    1
    33     7    18    1
    34    12    19    1
    35    20    21    1
@<TRIPOS>MOLECULE
*****
 32 35 0 0 0
SMALL
GASTEIGER

@<TRIPOS>ATOM
      1 C          64.3892   89.5021   14.5772 C.ar    1  UNL1        0.0172
      2 C          64.6200   88.2210   13.8319 C.ar    1  UNL1        0.0028
      3 C          64.1681   86.9181   14.4220 C.ar    1  UNL1        0.0159
      4 C          63.4855   86.8963   15.7576 C.ar    1  UNL1        0.0648
      5 C          63.2547   88.1774   16.5029 C.ar    1  UNL1        0.0159
      6 C          63.7066   89.4803   15.9127 C.ar    1  UNL1        0.0028
      7 N          66.7307   95.8643   12.4159 N.pl3   1  UNL1       -0.3399
      8 C          66.0929   94.5900   11.9476 C.ar    1  UNL1        0.1680
      9 N          65.6912   94.2713   10.5379 N.ar    1  UNL1       -0.1302
     10 N          65.0949   92.8951   10.5258 N.ar    1  UNL1       -0.1275
     11 C          65.1279   92.3632   11.9280 C.ar    1  UNL1        0.1827
     12 N          64.6761   91.0603   12.5181 N.ar    1  UNL1       -0.3346
     13 C          64.8410   90.8050   13.9870 C.ar    1  UNL1        0.0771
     14 C          65.4579   91.8526   14.8657 C.ar    1  UNL1        0.1160
     15 N          65.9097   93.1554   14.2755 N.ar    1  UNL1       -0.2364
     16 C          65.7448   93.4107   12.8067 C.ar    1  UNL1        0.1496
     17 H          66.9212   96.5848   11.7727 H       1  UNL1        0.1438
     18 H          66.9588   95.9802   13.3666 H       1  UNL1        0.1438
     19 H          64.2712   90.3727   11.9414 H       1  UNL1        0.1675
     20 N          63.0336   85.5934   16.3477 N.pl3   1  UNL1       -0.2149
     21 H          62.8274   85.5334   17.3085 H       1  UNL1        0.1737
     22 S          62.8961   84.3819   15.4740 S.O2    1  UNL1        0.0758
     23 O          64.2959   83.9713   15.8230 O.2     1  UNL1       -0.1499
     24 O          61.4962   84.7925   15.1251 O.2     1  UNL1       -0.1499
     25 C          62.7585   83.1704   14.6004 C.ar    1  UNL1        0.1533
     26 C          61.6012   82.2354   14.7915 C.ar    1  UNL1        0.0339
     27 C          61.4636   81.0239   13.9178 C.ar    1  UNL1        0.0592
     28 CL         60.3063   80.0889   14.1089 Cl      1  UNL1       -0.0822
     29 C          62.4833   80.7474   12.8530 C.ar    1  UNL1        0.0138
     30 C          63.6405   81.6824   12.6619 C.ar    1  UNL1        0.0319
     31 C          63.7781   82.8939   13.5356 C.ar    1  UNL1        0.1589
     32 F          64.9354   83.8289   13.3444 F       1  UNL1       -0.2027
@<TRIPOS>BOND
     1     7     8    1
     2     8     9   ar
     3     9    10   ar
     4    10    11   ar
     5    11    12   ar
     6    12    13   ar
     7    13     1    1
     8     1     2   ar
     9     2     3   ar
    10     3     4   ar
    11     4    20    1
    12    20    22    1
    13    22    23    2
    14    22    24    2
    15    22    25    1
    16    25    26   ar
    17    26    27   ar
    18    27    28    1
    19    27    29   ar
    20    29    30   ar
    21    30    31   ar
    22    31    32    1
    23     4     5   ar
    24     5     6   ar
    25    13    14   ar
    26    14    15   ar
    27    15    16   ar
    28    16     8   ar
    29    16    11    1
    30     6     1   ar
    31    31    25   ar
    32     7    17    1
    33     7    18    1
    34    12    19    1
    35    20    21    1
@<TRIPOS>MOLECULE
*****
 32 35 0 0 0
SMALL
GASTEIGER

@<TRIPOS>ATOM
      1 C          63.2490   86.1604   12.6732 C.ar    1  UNL1        0.0172
      2 C          63.9852   86.7005   13.8632 C.ar    1  UNL1        0.0028
      3 C          64.1109   88.1824   14.0583 C.ar    1  UNL1        0.0159
      4 C          63.5003   89.1243   13.0632 C.ar    1  UNL1        0.0648
      5 C          62.7640   88.5842   11.8732 C.ar    1  UNL1        0.0159
      6 C          62.6384   87.1022   11.6782 C.ar    1  UNL1        0.0028
      7 N          62.8260   79.2370   11.0858 N.pl3   1  UNL1       -0.3399
      8 C          62.6725   80.2319   12.1978 C.ar    1  UNL1        0.1680
      9 N          62.2924   79.9190   13.6147 N.ar    1  UNL1       -0.1302
     10 N          62.2572   81.2082   14.3807 N.ar    1  UNL1       -0.1275
     11 C          62.6154   82.3179   13.4372 C.ar    1  UNL1        0.1827
     12 N          62.7410   83.7998   13.6322 N.ar    1  UNL1       -0.3346
     13 C          63.1233   84.6784   12.4782 C.ar    1  UNL1        0.0771
     14 C          63.3800   84.0750   11.1291 C.ar    1  UNL1        0.1160
     15 N          63.2544   82.5931   10.9340 N.ar    1  UNL1       -0.2364
     16 C          62.8721   81.7146   12.0881 C.ar    1  UNL1        0.1496
     17 H          62.6727   78.2797   11.2572 H       1  UNL1        0.1438
     18 H          63.0800   79.5413   10.1846 H       1  UNL1        0.1438
     19 H          62.5725   84.1958   14.5177 H       1  UNL1        0.1675
     20 N          63.6260   90.6062   13.2583 N.pl3   1  UNL1       -0.2149
     21 H          62.8940   91.2031   12.9805 H       1  UNL1        0.1737
     22 S          64.8669   91.1788   13.8765 S.O2    1  UNL1        0.0758
     23 O          65.2876   91.7114   12.5389 O.2     1  UNL1       -0.1499
     24 O          64.4462   90.6461   15.2142 O.2     1  UNL1       -0.1499
     25 C          66.1079   91.7513   14.4948 C.ar    1  UNL1        0.1533
     26 C          67.4218   91.6403   13.7799 C.ar    1  UNL1        0.0339
     27 C          68.6628   92.2128   14.3981 C.ar    1  UNL1        0.0592
     28 CL         69.9768   92.1017   13.6832 Cl      1  UNL1       -0.0822
     29 C          68.5898   92.8964   15.7313 C.ar    1  UNL1        0.0138
     30 C          67.2758   93.0075   16.4462 C.ar    1  UNL1        0.0319
     31 C          66.0348   92.4349   15.8279 C.ar    1  UNL1        0.1589
     32 F          64.7208   92.5460   16.5429 F       1  UNL1       -0.2027
@<TRIPOS>BOND
     1     7     8    1
     2     8     9   ar
     3     9    10   ar
     4    10    11   ar
     5    11    12   ar
     6    12    13   ar
     7    13     1    1
     8     1     2   ar
     9     2     3   ar
    10     3     4   ar
    11     4    20    1
    12    20    22    1
    13    22    23    2
    14    22    24    2
    15    22    25    1
    16    25    26   ar
    17    26    27   ar
    18    27    28    1
    19    27    29   ar
    20    29    30   ar
    21    30    31   ar
    22    31    32    1
    23     4     5   ar
    24     5     6   ar
    25    13    14   ar
    26    14    15   ar
    27    15    16   ar
    28    16     8   ar
    29    16    11    1
    30     6     1   ar
    31    31    25   ar
    32     7    17    1
    33     7    18    1
    34    12    19    1
    35    20    21    1
@<TRIPOS>MOLECULE
*****
 32 35 0 0 0
SMALL
GASTEIGER

@<TRIPOS>ATOM
      1 C          64.2648   89.6821   13.1364 C.ar    1  UNL1        0.0172
      2 C          63.5295   88.6161   12.3795 C.ar    1  UNL1        0.0028
      3 C          63.2188   87.3059   13.0403 C.ar    1  UNL1        0.0159
      4 C          63.6435   87.0616   14.4581 C.ar    1  UNL1        0.0648
      5 C          64.3788   88.1276   15.2150 C.ar    1  UNL1        0.0159
      6 C          64.6895   89.4379   14.5541 C.ar    1  UNL1        0.0028
      7 N          65.3494   95.6831    9.4697 N.pl3   1  UNL1       -0.3399
      8 C          65.6729   94.9777   10.7534 C.ar    1  UNL1        0.1680
      9 N          66.5294   95.5135   11.8622 N.ar    1  UNL1       -0.1302
     10 N          66.5826   94.4796   12.9477 N.ar    1  UNL1       -0.1275
     11 C          65.7590   93.3049   12.5098 C.ar    1  UNL1        0.1827
     12 N          65.4484   91.9947   13.1707 N.ar    1  UNL1       -0.3346
     13 C          64.5755   90.9924   12.4755 C.ar    1  UNL1        0.0771
     14 C          64.0133   91.3002   11.1193 C.ar    1  UNL1        0.1160
     15 N          64.3240   92.6104   10.4584 N.ar    1  UNL1       -0.2364
     16 C          65.1968   93.6127   11.1536 C.ar    1  UNL1        0.1496
     17 H          65.7113   96.5822    9.2974 H       1  UNL1        0.1438
     18 H          64.7751   95.2468    8.7996 H       1  UNL1        0.1438
     19 H          65.8173   91.7927   14.0608 H       1  UNL1        0.1675
     20 N          63.3328   85.7514   15.1190 N.pl3   1  UNL1       -0.2149
     21 H          63.2136   85.7085   16.0953 H       1  UNL1        0.1737
     22 S          63.2036   84.5064   14.2923 S.O2    1  UNL1        0.0758
     23 O          61.7206   84.5111   14.5170 O.2     1  UNL1       -0.1499
     24 O          64.6867   84.5018   14.0676 O.2     1  UNL1       -0.1499
     25 C          63.0745   83.2614   13.4656 C.ar    1  UNL1        0.1533
     26 C          62.7360   81.9564   14.1230 C.ar    1  UNL1        0.0339
     27 C          62.6069   80.7114   13.2963 C.ar    1  UNL1        0.0592
     28 CL         62.2684   79.4063   13.9538 Cl      1  UNL1       -0.0822
     29 C          62.8162   80.7715   11.8123 C.ar    1  UNL1        0.0138
     30 C          63.1546   82.0766   11.1549 C.ar    1  UNL1        0.0319
     31 C          63.2838   83.3215   11.9815 C.ar    1  UNL1        0.1589
     32 F          63.6223   84.6266   11.3241 F       1  UNL1       -0.2027
@<TRIPOS>BOND
     1     7     8    1
     2     8     9   ar
     3     9    10   ar
     4    10    11   ar
     5    11    12   ar
     6    12    13   ar
     7    13     1    1
     8     1     2   ar
     9     2     3   ar
    10     3     4   ar
    11     4    20    1
    12    20    22    1
    13    22    23    2
    14    22    24    2
    15    22    25    1
    16    25    26   ar
    17    26    27   ar
    18    27    28    1
    19    27    29   ar
    20    29    30   ar
    21    30    31   ar
    22    31    32    1
    23     4     5   ar
    24     5     6   ar
    25    13    14   ar
    26    14    15   ar
    27    15    16   ar
    28    16     8   ar
    29    16    11    1
    30     6     1   ar
    31    31    25   ar
    32     7    17    1
    33     7    18    1
    34    12    19    1
    35    20    21    1
@<TRIPOS>MOLECULE
*****
 32 35 0 0 0
SMALL
GASTEIGER

@<TRIPOS>ATOM
      1 C          64.5234   90.3700   12.9947 C.ar    1  UNL1        0.0172
      2 C          63.7056   89.3032   12.3290 C.ar    1  UNL1        0.0028
      3 C          63.3995   88.0284   13.0578 C.ar    1  UNL1        0.0159
      4 C          63.9113   87.8204   14.4525 C.ar    1  UNL1        0.0648
      5 C          64.7292   88.8871   15.1181 C.ar    1  UNL1        0.0159
      6 C          65.0352   90.1620   14.3892 C.ar    1  UNL1        0.0028
      7 N          65.6664   96.1356    8.9843 N.pl3   1  UNL1       -0.3399
      8 C          65.8768   95.5551   10.3514 C.ar    1  UNL1        0.1680
      9 N          66.5595   96.2336   11.5019 N.ar    1  UNL1       -0.1302
     10 N          66.5460   95.2921   12.6694 N.ar    1  UNL1       -0.1275
     11 C          65.8550   94.0316   12.2406 C.ar    1  UNL1        0.1827
     12 N          65.5490   92.7569   12.9695 N.ar    1  UNL1       -0.3346
     13 C          64.8295   91.6448   12.2658 C.ar    1  UNL1        0.0771
     14 C          64.4159   91.8074   10.8331 C.ar    1  UNL1        0.1160
     15 N          64.7219   93.0821   10.1042 N.ar    1  UNL1       -0.2364
     16 C          65.4415   94.1942   10.8079 C.ar    1  UNL1        0.1496
     17 H          65.9901   97.0425    8.7795 H       1  UNL1        0.1438
     18 H          65.2047   95.6097    8.2920 H       1  UNL1        0.1438
     19 H          65.8205   92.6502   13.9098 H       1  UNL1        0.1675
     20 N          63.6053   86.5456   15.1813 N.pl3   1  UNL1       -0.2149
     21 H          63.4532   86.5590   16.1539 H       1  UNL1        0.1737
     22 S          63.5309   85.2504   14.4283 S.O2    1  UNL1        0.0758
     23 O          65.0274   85.2212   14.3308 O.2     1  UNL1       -0.1499
     24 O          62.0344   85.2797   14.5258 O.2     1  UNL1       -0.1499
     25 C          63.4565   83.9553   13.6753 C.ar    1  UNL1        0.1533
     26 C          63.8877   83.8964   12.2399 C.ar    1  UNL1        0.0339
     27 C          63.8133   82.6013   11.4869 C.ar    1  UNL1        0.0592
     28 CL         64.2444   82.5425   10.0513 Cl      1  UNL1       -0.0822
     29 C          63.3078   81.3649   12.1694 C.ar    1  UNL1        0.0138
     30 C          62.8766   81.4237   13.6048 C.ar    1  UNL1        0.0319
     31 C          62.9510   82.7189   14.3578 C.ar    1  UNL1        0.1589
     32 F          62.5198   82.7777   15.7934 F       1  UNL1       -0.2027
@<TRIPOS>BOND
     1     7     8    1
     2     8     9   ar
     3     9    10   ar
     4    10    11   ar
     5    11    12   ar
     6    12    13   ar
     7    13     1    1
     8     1     2   ar
     9     2     3   ar
    10     3     4   ar
    11     4    20    1
    12    20    22    1
    13    22    23    2
    14    22    24    2
    15    22    25    1
    16    25    26   ar
    17    26    27   ar
    18    27    28    1
    19    27    29   ar
    20    29    30   ar
    21    30    31   ar
    22    31    32    1
    23     4     5   ar
    24     5     6   ar
    25    13    14   ar
    26    14    15   ar
    27    15    16   ar
    28    16     8   ar
    29    16    11    1
    30     6     1   ar
    31    31    25   ar
    32     7    17    1
    33     7    18    1
    34    12    19    1
    35    20    21    1
@<TRIPOS>MOLECULE
*****
 32 35 0 0 0
SMALL
GASTEIGER

@<TRIPOS>ATOM
      1 C          72.0504   77.8617   12.5280 C.ar    1  UNL1        0.0172
      2 C          72.4433   78.0021   13.9688 C.ar    1  UNL1        0.0028
      3 C          72.3177   76.8312   14.8979 C.ar    1  UNL1        0.0159
      4 C          71.7992   75.5199   14.3863 C.ar    1  UNL1        0.0648
      5 C          71.4063   75.3795   12.9455 C.ar    1  UNL1        0.0159
      6 C          71.5319   76.5504   12.0163 C.ar    1  UNL1        0.0028
      7 N          72.7445   83.8085    8.6827 N.pl3   1  UNL1       -0.3399
      8 C          72.5044   82.3308    8.5878 C.ar    1  UNL1        0.1680
      9 N          72.2995   81.5504    7.3233 N.ar    1  UNL1       -0.1302
     10 N          72.0956   80.1115    7.6947 N.ar    1  UNL1       -0.1275
     11 C          72.1745   80.0026    9.1887 C.ar    1  UNL1        0.1827
     12 N          72.0489   78.8318   10.1178 N.ar    1  UNL1       -0.3346
     13 C          72.1760   79.0326   11.5988 C.ar    1  UNL1        0.0771
     14 C          72.4287   80.4043   12.1507 C.ar    1  UNL1        0.1160
     15 N          72.5543   81.5751   11.2217 N.ar    1  UNL1       -0.2364
     16 C          72.4272   81.3743    9.7406 C.ar    1  UNL1        0.1496
     17 H          72.7784   84.3552    7.8647 H       1  UNL1        0.1438
     18 H          72.8681   84.2315    9.5631 H       1  UNL1        0.1438
     19 H          71.8830   77.9315    9.7555 H       1  UNL1        0.1675
     20 N          71.6736   74.3491   15.3154 N.pl3   1  UNL1       -0.2149
     21 H          71.8699   74.4582   16.2740 H       1  UNL1        0.1737
     22 S          71.2491   73.0122   14.7842 S.O2    1  UNL1        0.0758
     23 O          69.8460   73.2746   15.2451 O.2     1  UNL1       -0.1499
     24 O          72.6522   72.7498   14.3232 O.2     1  UNL1       -0.1499
     25 C          70.8245   71.6752   14.2529 C.ar    1  UNL1        0.1533
     26 C          69.9323   71.5952   13.0497 C.ar    1  UNL1        0.0339
     27 C          69.5078   70.2582   12.5185 C.ar    1  UNL1        0.0592
     28 CL         68.6155   70.1782   11.3153 Cl      1  UNL1       -0.0822
     29 C          69.9754   69.0013   13.1903 C.ar    1  UNL1        0.0138
     30 C          70.8676   69.0813   14.3934 C.ar    1  UNL1        0.0319
     31 C          71.2922   70.4183   14.9247 C.ar    1  UNL1        0.1589
     32 F          72.1844   70.4983   16.1279 F       1  UNL1       -0.2027
@<TRIPOS>BOND
     1     7     8    1
     2     8     9   ar
     3     9    10   ar
     4    10    11   ar
     5    11    12   ar
     6    12    13   ar
     7    13     1    1
     8     1     2   ar
     9     2     3   ar
    10     3     4   ar
    11     4    20    1
    12    20    22    1
    13    22    23    2
    14    22    24    2
    15    22    25    1
    16    25    26   ar
    17    26    27   ar
    18    27    28    1
    19    27    29   ar
    20    29    30   ar
    21    30    31   ar
    22    31    32    1
    23     4     5   ar
    24     5     6   ar
    25    13    14   ar
    26    14    15   ar
    27    15    16   ar
    28    16     8   ar
    29    16    11    1
    30     6     1   ar
    31    31    25   ar
    32     7    17    1
    33     7    18    1
    34    12    19    1
    35    20    21    1
@<TRIPOS>MOLECULE
*****
 32 35 0 0 0
SMALL
GASTEIGER

@<TRIPOS>ATOM
      1 C          72.0846   77.9602   12.2002 C.ar    1  UNL1        0.0172
      2 C          71.6928   76.5504   11.8701 C.ar    1  UNL1        0.0028
      3 C          71.4242   75.5690   12.9723 C.ar    1  UNL1        0.0159
      4 C          71.5474   75.9974   14.4045 C.ar    1  UNL1        0.0648
      5 C          71.9392   77.4072   14.7346 C.ar    1  UNL1        0.0159
      6 C          72.2078   78.3886   13.6324 C.ar    1  UNL1        0.0028
      7 N          73.6314   82.0881    6.6145 N.pl3   1  UNL1       -0.3399
      8 C          73.0276   82.0917    7.9876 C.ar    1  UNL1        0.1680
      9 N          72.4549   83.2836    8.6957 N.ar    1  UNL1       -0.1302
     10 N          71.9638   82.8326   10.0394 N.ar    1  UNL1       -0.1275
     11 C          72.2330   81.3620   10.1617 C.ar    1  UNL1        0.1827
     12 N          71.9644   80.3807   11.2639 N.ar    1  UNL1       -0.3346
     13 C          72.3532   78.9415   11.0980 C.ar    1  UNL1        0.0771
     14 C          73.0107   78.4837    9.8298 C.ar    1  UNL1        0.1160
     15 N          73.2793   79.4649    8.7277 N.ar    1  UNL1       -0.2364
     16 C          72.8905   80.9041    8.8936 C.ar    1  UNL1        0.1496
     17 H          73.6766   82.9227    6.0944 H       1  UNL1        0.1438
     18 H          73.9826   81.2510    6.2334 H       1  UNL1        0.1438
     19 H          71.5329   80.6812   12.0962 H       1  UNL1        0.1675
     20 N          71.2788   75.0161   15.5067 N.pl3   1  UNL1       -0.2149
     21 H          71.1368   75.3360   16.4268 H       1  UNL1        0.1737
     22 S          71.2266   73.5473   15.2069 S.O2    1  UNL1        0.0758
     23 O          72.7222   73.5167   15.0964 O.2     1  UNL1       -0.1499
     24 O          69.7310   73.5778   15.3174 O.2     1  UNL1       -0.1499
     25 C          71.1745   72.0785   14.9071 C.ar    1  UNL1        0.1533
     26 C          71.4955   71.0819   15.9811 C.ar    1  UNL1        0.0339
     27 C          71.4433   69.6131   15.6813 C.ar    1  UNL1        0.0592
     28 CL         71.7644   68.6165   16.7555 Cl      1  UNL1       -0.0822
     29 C          71.0701   69.1409   14.3074 C.ar    1  UNL1        0.0138
     30 C          70.7491   70.1374   13.2333 C.ar    1  UNL1        0.0319
     31 C          70.8013   71.6062   13.5331 C.ar    1  UNL1        0.1589
     32 F          70.4802   72.6028   12.4590 F       1  UNL1       -0.2027
@<TRIPOS>BOND
     1     7     8    1
     2     8     9   ar
     3     9    10   ar
     4    10    11   ar
     5    11    12   ar
     6    12    13   ar
     7    13     1    1
     8     1     2   ar
     9     2     3   ar
    10     3     4   ar
    11     4    20    1
    12    20    22    1
    13    22    23    2
    14    22    24    2
    15    22    25    1
    16    25    26   ar
    17    26    27   ar
    18    27    28    1
    19    27    29   ar
    20    29    30   ar
    21    30    31   ar
    22    31    32    1
    23     4     5   ar
    24     5     6   ar
    25    13    14   ar
    26    14    15   ar
    27    15    16   ar
    28    16     8   ar
    29    16    11    1
    30     6     1   ar
    31    31    25   ar
    32     7    17    1
    33     7    18    1
    34    12    19    1
    35    20    21    1
@<TRIPOS>MOLECULE
*****
 32 35 0 0 0
SMALL
GASTEIGER

@<TRIPOS>ATOM
      1 C          63.0050   86.3900   12.3657 C.ar    1  UNL1        0.0172
      2 C          62.3215   87.1738   11.2848 C.ar    1  UNL1        0.0028
      3 C          62.3928   88.6721   11.2854 C.ar    1  UNL1        0.0159
      4 C          63.1477   89.3866   12.3669 C.ar    1  UNL1        0.0648
      5 C          63.8313   88.6028   13.4478 C.ar    1  UNL1        0.0159
      6 C          63.7599   87.1044   13.4472 C.ar    1  UNL1        0.0028
      7 N          62.7793   79.3111   11.6796 N.pl3   1  UNL1       -0.3399
      8 C          62.6713   80.4318   12.6708 C.ar    1  UNL1        0.1680
      9 N          62.4246   80.2859   14.1431 N.ar    1  UNL1       -0.1302
     10 N          62.3919   81.6590   14.7459 N.ar    1  UNL1       -0.1275
     11 C          62.6184   82.6536   13.6461 C.ar    1  UNL1        0.1827
     12 N          62.6897   84.1519   13.6468 N.ar    1  UNL1       -0.3346
     13 C          62.9337   84.8917   12.3650 C.ar    1  UNL1        0.0771
     14 C          63.1064   84.1332   11.0825 C.ar    1  UNL1        0.1160
     15 N          63.0351   82.6349   11.0818 N.ar    1  UNL1       -0.2364
     16 C          62.7911   81.8951   12.3636 C.ar    1  UNL1        0.1496
     17 H          62.6859   78.3781   11.9794 H       1  UNL1        0.1438
     18 H          62.9434   79.5087   10.7292 H       1  UNL1        0.1438
     19 H          62.5764   84.6497   14.4886 H       1  UNL1        0.1675
     20 N          63.2190   90.8849   12.3675 N.pl3   1  UNL1       -0.2149
     21 H          62.5092   91.4117   11.9340 H       1  UNL1        0.1737
     22 S          64.3717   91.5806   13.0288 S.O2    1  UNL1        0.0758
     23 O          63.6399   91.5490   14.3378 O.2     1  UNL1       -0.1499
     24 O          65.1035   91.6123   11.7198 O.2     1  UNL1       -0.1499
     25 C          65.5244   92.2764   13.6900 C.ar    1  UNL1        0.1533
     26 C          66.1597   91.6803   14.9111 C.ar    1  UNL1        0.0339
     27 C          67.3124   92.3760   15.5723 C.ar    1  UNL1        0.0592
     28 CL         67.9477   91.7799   16.7934 Cl      1  UNL1       -0.0822
     29 C          67.8298   93.6679   15.0125 C.ar    1  UNL1        0.0138
     30 C          67.1945   94.2640   13.7915 C.ar    1  UNL1        0.0319
     31 C          66.0418   93.5682   13.1302 C.ar    1  UNL1        0.1589
     32 F          65.4064   94.1644   11.9091 F       1  UNL1       -0.2027
@<TRIPOS>BOND
     1     7     8    1
     2     8     9   ar
     3     9    10   ar
     4    10    11   ar
     5    11    12   ar
     6    12    13   ar
     7    13     1    1
     8     1     2   ar
     9     2     3   ar
    10     3     4   ar
    11     4    20    1
    12    20    22    1
    13    22    23    2
    14    22    24    2
    15    22    25    1
    16    25    26   ar
    17    26    27   ar
    18    27    28    1
    19    27    29   ar
    20    29    30   ar
    21    30    31   ar
    22    31    32    1
    23     4     5   ar
    24     5     6   ar
    25    13    14   ar
    26    14    15   ar
    27    15    16   ar
    28    16     8   ar
    29    16    11    1
    30     6     1   ar
    31    31    25   ar
    32     7    17    1
    33     7    18    1
    34    12    19    1
    35    20    21    1
