@<TRIPOS>MOLECULE
*****
 45 48 0 0 0
SMALL
GASTEIGER

@<TRIPOS>ATOM
      1 C          62.0059   89.0798   11.5819 C.3     1  UNL1        0.0779
      2 C          63.1265   90.0350   11.8685 C.ar    1  UNL1        0.0373
      3 C          63.5395   91.0389   10.8334 C.ar    1  UNL1        0.0023
      4 C          64.6600   91.9941   11.1200 C.ar    1  UNL1        0.0183
      5 C          65.0730   92.9980   10.0848 C.ar    1  UNL1        0.0118
      6 C          66.1935   93.9532   10.3714 C.ar    1  UNL1        0.0685
      7 C          66.9010   93.9044   11.6932 C.ar    1  UNL1        0.0118
      8 C          66.4880   92.9005   12.7284 C.ar    1  UNL1        0.0199
      9 C          65.3675   91.9453   12.4418 C.ar    1  UNL1        0.0844
     10 N          64.9545   90.9414   13.4769 N.ar    1  UNL1       -0.2119
     11 C          63.8339   89.9862   13.1903 C.ar    1  UNL1        0.2211
     12 C          66.6065   94.9571    9.3363 C.1     1  UNL1        0.1004
     13 N          67.0195   95.9610    8.3011 N.1     1  UNL1       -0.1908
     14 O          63.4209   88.9823   14.2255 O.3     1  UNL1       -0.4563
     15 C          63.4561   89.3470   15.6800 C.3     1  UNL1        0.2542
     16 C          62.9214   86.0434    9.1961 C.ar    1  UNL1        0.2257
     17 C          62.6187   87.4353    9.6662 C.ar    1  UNL1        0.0539
     18 C          62.3087   87.6879   11.1119 C.ar    1  UNL1       -0.0083
     19 C          62.3014   86.5487   12.0875 C.ar    1  UNL1        0.0307
     20 C          62.6041   85.1567   11.6175 C.ar    1  UNL1        0.1346
     21 N          62.9141   84.9040   10.1718 N.ar    1  UNL1       -0.1967
     22 N          62.5969   84.0174   12.5932 N.pl3   1  UNL1       -0.2897
     23 C          62.6124   82.6029   12.0946 C.3     1  UNL1        0.1136
     24 C          62.5741   84.2927   14.0676 C.3     1  UNL1        0.1136
     25 O          63.2314   85.7908    7.7504 O.3     1  UNL1       -0.4602
     26 C          62.5998   84.4355    5.6257 C.3     1  UNL1        0.0512
     27 C          62.8157   84.5002    7.1086 C.3     1  UNL1        0.2072
     28 C          60.5827   89.5166   11.7653 C.3     1  UNL1        0.1161
     29 O          60.8857   89.9092   13.1810 O.3     1  UNL1       -0.3820
     30 H          60.1630   90.4564   13.5264 H       1  UNL1        0.2107
     31 C          60.2798   89.1239   10.3497 C.ar    1  UNL1        0.0117
     32 C          60.3254   90.1534    9.2597 C.ar    1  UNL1        0.0559
     33 C          60.0225   89.7607    7.8440 C.ar    1  UNL1        0.2272
     34 N          59.6739   88.3386    7.5184 N.ar    1  UNL1       -0.1767
     35 C          59.6283   87.3092    8.6083 C.ar    1  UNL1        0.2272
     36 C          59.9312   87.7018   10.0240 C.ar    1  UNL1        0.0559
     37 O          60.0682   90.7903    6.7540 O.3     1  UNL1       -0.4561
     38 C          59.1066   90.7097    5.6056 C.3     1  UNL1        0.2542
     39 O          59.2797   85.8870    8.2827 O.3     1  UNL1       -0.4561
     40 C          59.8367   85.2421    7.0483 C.3     1  UNL1        0.2542
     41 C          59.1595   89.9533   11.9487 C.3     1  UNL1        0.0491
     42 C          58.0636   88.9311   12.0128 C.3     1  UNL1        0.0750
     43 N          57.5542   88.4599   13.3426 N.3     1  UNL1       -0.2702
     44 C          56.1468   87.9575   13.4716 C.3     1  UNL1        0.0897
     45 C          58.4524   88.4912   14.5436 C.3     1  UNL1        0.0897
@<TRIPOS>BOND
     1    26    27    1
     2    27    25    1
     3    25    16    1
     4    16    17   ar
     5    17    18   ar
     6     1    18    1
     7     1     2    1
     8     2     3   ar
     9     3     4   ar
    10     4     5   ar
    11     5     6   ar
    12     6    12    1
    13    12    13    3
    14     6     7   ar
    15     7     8   ar
    16     8     9   ar
    17     9    10   ar
    18    10    11   ar
    19    11    14    1
    20    14    15    1
    21     1    28    1
    22    28    29    1
    23    28    41    1
    24    41    42    1
    25    42    43    1
    26    43    44    1
    27    43    45    1
    28    28    31    1
    29    31    32   ar
    30    32    33   ar
    31    33    37    1
    32    37    38    1
    33    33    34   ar
    34    34    35   ar
    35    35    39    1
    36    39    40    1
    37    35    36   ar
    38    18    19   ar
    39    19    20   ar
    40    20    22    1
    41    22    23    1
    42    22    24    1
    43    20    21   ar
    44    21    16   ar
    45    11     2   ar
    46    36    31   ar
    47     9     4   ar
    48    29    30    1
@<TRIPOS>MOLECULE
*****
 45 48 0 0 0
SMALL
GASTEIGER

@<TRIPOS>ATOM
      1 C          64.5667   91.4588   13.2949 C.3     1  UNL1        0.0779
      2 C          64.2084   90.3867   14.2809 C.ar    1  UNL1        0.0373
      3 C          64.3457   88.9421   13.9010 C.ar    1  UNL1        0.0023
      4 C          63.9873   87.8700   14.8869 C.ar    1  UNL1        0.0183
      5 C          64.1246   86.4254   14.5069 C.ar    1  UNL1        0.0118
      6 C          63.7663   85.3532   15.4930 C.ar    1  UNL1        0.0685
      7 C          63.2706   85.7257   16.8588 C.ar    1  UNL1        0.0118
      8 C          63.1333   87.1702   17.2387 C.ar    1  UNL1        0.0199
      9 C          63.4917   88.2424   16.2528 C.ar    1  UNL1        0.0844
     10 N          63.3544   89.6869   16.6327 N.ar    1  UNL1       -0.2119
     11 C          63.7127   90.7591   15.6467 C.ar    1  UNL1        0.2211
     12 C          63.9035   83.9086   15.1130 C.1     1  UNL1        0.1004
     13 N          64.0408   82.4641   14.7331 N.1     1  UNL1       -0.1908
     14 O          63.5754   92.2037   16.0267 O.3     1  UNL1       -0.4563
     15 C          64.3883   92.7625   17.1566 C.3     1  UNL1        0.2542
     16 C          66.4170   94.9665   13.4447 C.ar    1  UNL1        0.2257
     17 C          65.4371   93.8960   13.0655 C.ar    1  UNL1        0.0539
     18 C          65.5466   92.5293   13.6741 C.ar    1  UNL1       -0.0083
     19 C          66.6359   92.2332   14.6618 C.ar    1  UNL1        0.0307
     20 C          67.6159   93.3037   15.0410 C.ar    1  UNL1        0.1346
     21 N          67.5064   94.6704   14.4325 N.ar    1  UNL1       -0.1967
     22 N          68.7052   93.0076   16.0287 N.pl3   1  UNL1       -0.2897
     23 C          68.7032   91.7097   16.7807 C.3     1  UNL1        0.1136
     24 C          69.7965   94.0093   16.2645 C.3     1  UNL1        0.1136
     25 O          66.3076   96.3331   12.8361 O.3     1  UNL1       -0.4602
     26 C          64.9069   96.8543   10.7109 C.3     1  UNL1        0.0512
     27 C          66.2145   96.4856   11.3468 C.3     1  UNL1        0.2072
     28 C          63.9452   91.4604   11.9297 C.3     1  UNL1        0.1161
     29 O          62.6597   90.9548   12.5144 O.3     1  UNL1       -0.3820
     30 H          61.9470   91.0557   11.8642 H       1  UNL1        0.2107
     31 C          65.2307   91.9660   11.3450 C.ar    1  UNL1        0.0117
     32 C          66.5402   91.4066   11.8164 C.ar    1  UNL1        0.0559
     33 C          67.8257   91.9122   11.2317 C.ar    1  UNL1        0.2272
     34 N          67.8017   92.9771   10.1756 N.ar    1  UNL1       -0.1767
     35 C          66.4922   93.5364    9.7042 C.ar    1  UNL1        0.2272
     36 C          65.2067   93.0308   10.2889 C.ar    1  UNL1        0.0559
     37 O          69.1353   91.3528   11.7031 O.3     1  UNL1       -0.4561
     38 C          69.5773   91.5705   13.1199 C.3     1  UNL1        0.2542
     39 O          66.4681   94.6014    8.6481 O.3     1  UNL1       -0.4561
     40 C          67.7238   95.3474    8.3066 C.3     1  UNL1        0.2542
     41 C          63.3236   91.4620   10.5646 C.3     1  UNL1        0.0491
     42 C          62.9738   90.1643    9.8983 C.3     1  UNL1        0.0750
     43 N          61.7915   89.3725   10.3728 N.3     1  UNL1       -0.2702
     44 C          61.9977   88.0516   11.0531 C.3     1  UNL1        0.0897
     45 C          60.4030   89.9015   10.1671 C.3     1  UNL1        0.0897
@<TRIPOS>BOND
     1    26    27    1
     2    27    25    1
     3    25    16    1
     4    16    17   ar
     5    17    18   ar
     6     1    18    1
     7     1     2    1
     8     2     3   ar
     9     3     4   ar
    10     4     5   ar
    11     5     6   ar
    12     6    12    1
    13    12    13    3
    14     6     7   ar
    15     7     8   ar
    16     8     9   ar
    17     9    10   ar
    18    10    11   ar
    19    11    14    1
    20    14    15    1
    21     1    28    1
    22    28    29    1
    23    28    41    1
    24    41    42    1
    25    42    43    1
    26    43    44    1
    27    43    45    1
    28    28    31    1
    29    31    32   ar
    30    32    33   ar
    31    33    37    1
    32    37    38    1
    33    33    34   ar
    34    34    35   ar
    35    35    39    1
    36    39    40    1
    37    35    36   ar
    38    18    19   ar
    39    19    20   ar
    40    20    22    1
    41    22    23    1
    42    22    24    1
    43    20    21   ar
    44    21    16   ar
    45    11     2   ar
    46    36    31   ar
    47     9     4   ar
    48    29    30    1
@<TRIPOS>MOLECULE
*****
 45 48 0 0 0
SMALL
GASTEIGER

@<TRIPOS>ATOM
      1 C          64.5838   91.3521   13.3119 C.3     1  UNL1        0.0779
      2 C          64.2188   90.2936   14.3101 C.ar    1  UNL1        0.0373
      3 C          64.3516   88.8439   13.9485 C.ar    1  UNL1        0.0023
      4 C          63.9867   87.7854   14.9467 C.ar    1  UNL1        0.0183
      5 C          64.1195   86.3357   14.5850 C.ar    1  UNL1        0.0118
      6 C          63.7545   85.2773   15.5833 C.ar    1  UNL1        0.0685
      7 C          63.2568   85.6685   16.9431 C.ar    1  UNL1        0.0118
      8 C          63.1240   87.1181   17.3048 C.ar    1  UNL1        0.0199
      9 C          63.4889   88.1766   16.3066 C.ar    1  UNL1        0.0844
     10 N          63.3561   89.6263   16.6682 N.ar    1  UNL1       -0.2119
     11 C          63.7211   90.6848   15.6700 C.ar    1  UNL1        0.2211
     12 C          63.8873   83.8276   15.2217 C.1     1  UNL1        0.1004
     13 N          64.0201   82.3779   14.8600 N.1     1  UNL1       -0.1908
     14 O          63.5883   92.1345   16.0316 O.3     1  UNL1       -0.4563
     15 C          64.4100   92.7072   17.1481 C.3     1  UNL1        0.2542
     16 C          66.3907   94.8826   13.4530 C.ar    1  UNL1        0.2257
     17 C          65.4229   93.7997   13.0779 C.ar    1  UNL1        0.0539
     18 C          65.5516   92.4350   13.6869 C.ar    1  UNL1       -0.0083
     19 C          66.6480   92.1531   14.6709 C.ar    1  UNL1        0.0307
     20 C          67.6158   93.2360   15.0460 C.ar    1  UNL1        0.1346
     21 N          67.4872   94.6008   14.4371 N.ar    1  UNL1       -0.1967
     22 N          68.7122   92.9541   16.0301 N.pl3   1  UNL1       -0.2897
     23 C          68.6920   91.6873   16.8329 C.3     1  UNL1        0.1136
     24 C          69.8289   93.9391   16.2113 C.3     1  UNL1        0.1136
     25 O          66.2620   96.2474   12.8440 O.3     1  UNL1       -0.4602
     26 C          65.0400   96.8552   10.6333 C.3     1  UNL1        0.0512
     27 C          66.2779   96.4078   11.3526 C.3     1  UNL1        0.2072
     28 C          63.9809   91.3276   11.9385 C.3     1  UNL1        0.1161
     29 O          62.7021   90.7905   12.5095 O.3     1  UNL1       -0.3820
     30 H          61.9957   90.8674   11.8492 H       1  UNL1        0.2107
     31 C          65.2598   91.8647   11.3676 C.ar    1  UNL1        0.0117
     32 C          65.2209   92.9285   10.3108 C.ar    1  UNL1        0.0559
     33 C          66.4998   93.4656    9.7398 C.ar    1  UNL1        0.2272
     34 N          67.8175   92.9389   10.2256 N.ar    1  UNL1       -0.1767
     35 C          67.8564   91.8751   11.2824 C.ar    1  UNL1        0.2272
     36 C          66.5776   91.3380   11.8534 C.ar    1  UNL1        0.0559
     37 O          66.4608   94.5294    8.6830 O.3     1  UNL1       -0.4561
     38 C          67.7255   95.2212    8.2683 C.3     1  UNL1        0.2542
     39 O          69.1743   91.3484   11.7683 O.3     1  UNL1       -0.4561
     40 C          69.6416   91.6639   13.1582 C.3     1  UNL1        0.2542
     41 C          63.3781   91.3031   10.5652 C.3     1  UNL1        0.0491
     42 C          61.9454   90.8981   10.3822 C.3     1  UNL1        0.0750
     43 N          61.6111   89.5077    9.9293 N.3     1  UNL1       -0.2702
     44 C          60.4748   89.2822    8.9765 C.3     1  UNL1        0.0897
     45 C          62.4131   88.3429   10.4294 C.3     1  UNL1        0.0897
@<TRIPOS>BOND
     1    26    27    1
     2    27    25    1
     3    25    16    1
     4    16    17   ar
     5    17    18   ar
     6     1    18    1
     7     1     2    1
     8     2     3   ar
     9     3     4   ar
    10     4     5   ar
    11     5     6   ar
    12     6    12    1
    13    12    13    3
    14     6     7   ar
    15     7     8   ar
    16     8     9   ar
    17     9    10   ar
    18    10    11   ar
    19    11    14    1
    20    14    15    1
    21     1    28    1
    22    28    29    1
    23    28    41    1
    24    41    42    1
    25    42    43    1
    26    43    44    1
    27    43    45    1
    28    28    31    1
    29    31    32   ar
    30    32    33   ar
    31    33    37    1
    32    37    38    1
    33    33    34   ar
    34    34    35   ar
    35    35    39    1
    36    39    40    1
    37    35    36   ar
    38    18    19   ar
    39    19    20   ar
    40    20    22    1
    41    22    23    1
    42    22    24    1
    43    20    21   ar
    44    21    16   ar
    45    11     2   ar
    46    36    31   ar
    47     9     4   ar
    48    29    30    1
@<TRIPOS>MOLECULE
*****
 45 48 0 0 0
SMALL
GASTEIGER

@<TRIPOS>ATOM
      1 C          62.2499   88.4518   10.7877 C.3     1  UNL1        0.0779
      2 C          62.7121   87.4732   11.8263 C.ar    1  UNL1        0.0373
      3 C          62.4124   86.0122   11.6663 C.ar    1  UNL1        0.0023
      4 C          62.8746   85.0336   12.7048 C.ar    1  UNL1        0.0183
      5 C          62.5748   83.5726   12.5448 C.ar    1  UNL1        0.0118
      6 C          63.0371   82.5940   13.5834 C.ar    1  UNL1        0.0685
      7 C          63.7991   83.0763   14.7820 C.ar    1  UNL1        0.0118
      8 C          64.0989   84.5373   14.9420 C.ar    1  UNL1        0.0199
      9 C          63.6367   85.5160   13.9035 C.ar    1  UNL1        0.0844
     10 N          63.9364   86.9770   14.0635 N.ar    1  UNL1       -0.2119
     11 C          63.4742   87.9556   13.0248 C.ar    1  UNL1        0.2211
     12 C          62.7373   81.1330   13.4234 C.1     1  UNL1        0.1004
     13 N          62.4375   79.6719   13.2634 N.1     1  UNL1       -0.1908
     14 O          63.7740   89.4166   13.1849 O.3     1  UNL1       -0.4563
     15 C          63.5539   90.0868   14.5086 C.3     1  UNL1        0.2542
     16 C          59.7756   88.2784    7.6897 C.ar    1  UNL1        0.2257
     17 C          60.4614   88.7692    8.9301 C.ar    1  UNL1        0.0539
     18 C          61.5641   87.9610    9.5472 C.ar    1  UNL1       -0.0083
     19 C          61.9810   86.6619    8.9239 C.ar    1  UNL1        0.0307
     20 C          61.2952   86.1710    7.6834 C.ar    1  UNL1        0.1346
     21 N          60.1925   86.9793    7.0663 N.ar    1  UNL1       -0.1967
     22 N          61.7120   84.8719    7.0601 N.pl3   1  UNL1       -0.2897
     23 C          60.8918   84.2722    5.9567 C.3     1  UNL1        0.1136
     24 C          62.9491   84.1726    7.5402 C.3     1  UNL1        0.1136
     25 O          58.6729   89.0866    7.0725 O.3     1  UNL1       -0.4602
     26 C          57.8843   90.8927    5.3795 C.3     1  UNL1        0.0512
     27 C          58.9909   90.1136    6.0264 C.3     1  UNL1        0.2072
     28 C          62.4734   89.9213   10.9896 C.3     1  UNL1        0.1161
     29 O          63.8835   89.7740   10.4996 O.3     1  UNL1       -0.3820
     30 H          64.2516   90.6503   10.3059 H       1  UNL1        0.2107
     31 C          61.0634   90.0685   11.4795 C.ar    1  UNL1        0.0117
     32 C          60.4302   88.9716   12.2831 C.ar    1  UNL1        0.0559
     33 C          59.0201   89.1188   12.7730 C.ar    1  UNL1        0.2272
     34 N          58.2432   90.3629   12.4593 N.ar    1  UNL1       -0.1767
     35 C          58.8763   91.4598   11.6556 C.ar    1  UNL1        0.2272
     36 C          60.2864   91.3126   11.1657 C.ar    1  UNL1        0.0559
     37 O          58.3870   88.0218   13.5767 O.3     1  UNL1       -0.4561
     38 C          56.8940   87.8799   13.6066 C.3     1  UNL1        0.2542
     39 O          58.0994   92.7041   11.3419 O.3     1  UNL1       -0.4561
     40 C          58.1978   93.8975   12.2453 C.3     1  UNL1        0.2542
     41 C          62.6970   91.3907   11.1914 C.3     1  UNL1        0.0491
     42 C          63.7690   92.0995   10.4177 C.3     1  UNL1        0.0750
     43 N          65.0602   92.4653   11.0878 N.3     1  UNL1       -0.2702
     44 C          66.2402   92.8864   10.2631 C.3     1  UNL1        0.0897
     45 C          65.1713   92.4101   12.5827 C.3     1  UNL1        0.0897
@<TRIPOS>BOND
     1    26    27    1
     2    27    25    1
     3    25    16    1
     4    16    17   ar
     5    17    18   ar
     6     1    18    1
     7     1     2    1
     8     2     3   ar
     9     3     4   ar
    10     4     5   ar
    11     5     6   ar
    12     6    12    1
    13    12    13    3
    14     6     7   ar
    15     7     8   ar
    16     8     9   ar
    17     9    10   ar
    18    10    11   ar
    19    11    14    1
    20    14    15    1
    21     1    28    1
    22    28    29    1
    23    28    41    1
    24    41    42    1
    25    42    43    1
    26    43    44    1
    27    43    45    1
    28    28    31    1
    29    31    32   ar
    30    32    33   ar
    31    33    37    1
    32    37    38    1
    33    33    34   ar
    34    34    35   ar
    35    35    39    1
    36    39    40    1
    37    35    36   ar
    38    18    19   ar
    39    19    20   ar
    40    20    22    1
    41    22    23    1
    42    22    24    1
    43    20    21   ar
    44    21    16   ar
    45    11     2   ar
    46    36    31   ar
    47     9     4   ar
    48    29    30    1
@<TRIPOS>MOLECULE
*****
 45 48 0 0 0
SMALL
GASTEIGER

@<TRIPOS>ATOM
      1 C          62.2622   88.4267   10.8001 C.3     1  UNL1        0.0779
      2 C          62.7204   87.4393   11.8322 C.ar    1  UNL1        0.0373
      3 C          62.4126   85.9810   11.6636 C.ar    1  UNL1        0.0023
      4 C          62.8708   84.9936   12.6956 C.ar    1  UNL1        0.0183
      5 C          62.5630   83.5352   12.5270 C.ar    1  UNL1        0.0118
      6 C          63.0213   82.5478   13.5591 C.ar    1  UNL1        0.0685
      7 C          63.7873   83.0187   14.7596 C.ar    1  UNL1        0.0118
      8 C          64.0952   84.4771   14.9282 C.ar    1  UNL1        0.0199
      9 C          63.6370   85.4645   13.8962 C.ar    1  UNL1        0.0844
     10 N          63.9448   86.9229   14.0647 N.ar    1  UNL1       -0.2119
     11 C          63.4865   87.9103   13.0327 C.ar    1  UNL1        0.2211
     12 C          62.7135   81.0894   13.3905 C.1     1  UNL1        0.1004
     13 N          62.4056   79.6310   13.2220 N.1     1  UNL1       -0.1908
     14 O          63.7943   89.3686   13.2012 O.3     1  UNL1       -0.4563
     15 C          63.6366   90.0182   14.5440 C.3     1  UNL1        0.2542
     16 C          59.7916   88.2859    7.6975 C.ar    1  UNL1        0.2257
     17 C          60.4787   88.7657    8.9415 C.ar    1  UNL1        0.0539
     18 C          61.5751   87.9470    9.5561 C.ar    1  UNL1       -0.0083
     19 C          61.9843   86.6484    8.9266 C.ar    1  UNL1        0.0307
     20 C          61.2972   86.1686    7.6825 C.ar    1  UNL1        0.1346
     21 N          60.2009   86.9873    7.0680 N.ar    1  UNL1       -0.1967
     22 N          61.7064   84.8700    7.0531 N.pl3   1  UNL1       -0.2897
     23 C          60.8800   84.2779    5.9502 C.3     1  UNL1        0.1136
     24 C          62.9421   84.1636    7.5265 C.3     1  UNL1        0.1136
     25 O          58.6953   89.1047    7.0829 O.3     1  UNL1       -0.4602
     26 C          57.9289   90.9435    5.4151 C.3     1  UNL1        0.0512
     27 C          59.0067   90.0589    5.9682 C.3     1  UNL1        0.2072
     28 C          62.4910   89.8939   11.0122 C.3     1  UNL1        0.1161
     29 O          63.9038   89.7431   10.5313 O.3     1  UNL1       -0.3820
     30 H          64.2773   90.6187   10.3452 H       1  UNL1        0.2107
     31 C          61.0782   90.0448   11.4931 C.ar    1  UNL1        0.0117
     32 C          60.3033   91.2868   11.1661 C.ar    1  UNL1        0.0559
     33 C          58.8905   91.4376   11.6470 C.ar    1  UNL1        0.2272
     34 N          58.2527   90.3466   12.4548 N.ar    1  UNL1       -0.1767
     35 C          59.0276   89.1046   12.7818 C.ar    1  UNL1        0.2272
     36 C          60.4404   88.9537   12.3009 C.ar    1  UNL1        0.0559
     37 O          58.1155   92.6797   11.3200 O.3     1  UNL1       -0.4561
     38 C          58.1815   93.8672   12.2340 C.3     1  UNL1        0.2542
     39 O          58.3898   88.0135   13.5897 O.3     1  UNL1       -0.4561
     40 C          56.8964   87.8748   13.6159 C.3     1  UNL1        0.2542
     41 C          62.7199   91.3611   11.2242 C.3     1  UNL1        0.0491
     42 C          63.7907   92.0726   10.4513 C.3     1  UNL1        0.0750
     43 N          65.0801   92.4424   11.1225 N.3     1  UNL1       -0.2702
     44 C          65.1858   92.4014   12.6182 C.3     1  UNL1        0.0897
     45 C          66.2640   92.8532   10.2980 C.3     1  UNL1        0.0897
@<TRIPOS>BOND
     1    26    27    1
     2    27    25    1
     3    25    16    1
     4    16    17   ar
     5    17    18   ar
     6     1    18    1
     7     1     2    1
     8     2     3   ar
     9     3     4   ar
    10     4     5   ar
    11     5     6   ar
    12     6    12    1
    13    12    13    3
    14     6     7   ar
    15     7     8   ar
    16     8     9   ar
    17     9    10   ar
    18    10    11   ar
    19    11    14    1
    20    14    15    1
    21     1    28    1
    22    28    29    1
    23    28    41    1
    24    41    42    1
    25    42    43    1
    26    43    44    1
    27    43    45    1
    28    28    31    1
    29    31    32   ar
    30    32    33   ar
    31    33    37    1
    32    37    38    1
    33    33    34   ar
    34    34    35   ar
    35    35    39    1
    36    39    40    1
    37    35    36   ar
    38    18    19   ar
    39    19    20   ar
    40    20    22    1
    41    22    23    1
    42    22    24    1
    43    20    21   ar
    44    21    16   ar
    45    11     2   ar
    46    36    31   ar
    47     9     4   ar
    48    29    30    1
@<TRIPOS>MOLECULE
*****
 45 48 0 0 0
SMALL
GASTEIGER

@<TRIPOS>ATOM
      1 C          62.7495   89.2603   12.8178 C.3     1  UNL1        0.0779
      2 C          63.1522   87.8673   13.2023 C.ar    1  UNL1        0.0373
      3 C          62.9287   86.7317   12.2482 C.ar    1  UNL1        0.0023
      4 C          63.3313   85.3389   12.6326 C.ar    1  UNL1        0.0183
      5 C          63.1078   84.2032   11.6785 C.ar    1  UNL1        0.0118
      6 C          63.5105   82.8103   12.0629 C.ar    1  UNL1        0.0685
      7 C          64.1367   82.5531   13.4015 C.ar    1  UNL1        0.0118
      8 C          64.3602   83.6888   14.3556 C.ar    1  UNL1        0.0199
      9 C          63.9575   85.0816   13.9712 C.ar    1  UNL1        0.0844
     10 N          64.1810   86.2173   14.9253 N.ar    1  UNL1       -0.2119
     11 C          63.7783   87.6102   14.5408 C.ar    1  UNL1        0.2211
     12 C          63.2870   81.6747   11.1088 C.1     1  UNL1        0.1004
     13 N          63.0635   80.5390   10.1547 N.1     1  UNL1       -0.1908
     14 O          64.0018   88.7458   15.4950 O.3     1  UNL1       -0.4563
     15 C          63.1638   88.8607   16.7336 C.3     1  UNL1        0.2542
     16 C          64.9543   92.0966   11.1316 C.ar    1  UNL1        0.2257
     17 C          63.9081   91.0382   11.3190 C.ar    1  UNL1        0.0539
     18 C          63.7957   90.3187   12.6304 C.ar    1  UNL1       -0.0083
     19 C          64.7295   90.6575   13.7543 C.ar    1  UNL1        0.0307
     20 C          65.7758   91.7160   13.5669 C.ar    1  UNL1        0.1346
     21 N          65.8882   92.4355   12.2555 N.ar    1  UNL1       -0.1967
     22 N          66.7096   92.0548   14.6907 N.pl3   1  UNL1       -0.2897
     23 C          68.1929   92.0124   14.4720 C.3     1  UNL1        0.1136
     24 C          66.1600   92.4361   16.0334 C.3     1  UNL1        0.1136
     25 O          65.0667   92.8162    9.8203 O.3     1  UNL1       -0.4602
     26 C          67.4708   93.6313    9.2667 C.3     1  UNL1        0.0512
     27 C          66.0551   93.9332    9.6600 C.3     1  UNL1        0.2072
     28 C          61.3006   89.5947   12.6208 C.3     1  UNL1        0.1161
     29 O          61.2236   90.0932   14.0334 O.3     1  UNL1       -0.3820
     30 H          60.4063   90.6019   14.1527 H       1  UNL1        0.2107
     31 C          61.3776   89.0961   11.2082 C.ar    1  UNL1        0.0117
     32 C          62.1823   87.8714   10.8879 C.ar    1  UNL1        0.0559
     33 C          62.2593   87.3728    9.4753 C.ar    1  UNL1        0.2272
     34 N          61.5316   88.0989    8.3830 N.ar    1  UNL1       -0.1767
     35 C          60.7269   89.3235    8.7033 C.ar    1  UNL1        0.2272
     36 C          60.6499   89.8221   10.1159 C.ar    1  UNL1        0.0559
     37 O          63.0641   86.1481    9.1550 O.3     1  UNL1       -0.4561
     38 C          62.6705   85.2722    8.0027 C.3     1  UNL1        0.2542
     39 O          59.9991   90.0496    7.6109 O.3     1  UNL1       -0.4561
     40 C          59.2586   89.2763    6.5603 C.3     1  UNL1        0.2542
     41 C          59.8517   89.9291   12.4238 C.3     1  UNL1        0.0491
     42 C          58.8323   88.8312   12.3467 C.3     1  UNL1        0.0750
     43 N          58.0195   88.4763   13.5563 N.3     1  UNL1       -0.2702
     44 C          58.6566   88.4751   14.9142 C.3     1  UNL1        0.0897
     45 C          56.5693   88.1224   13.4080 C.3     1  UNL1        0.0897
@<TRIPOS>BOND
     1    26    27    1
     2    27    25    1
     3    25    16    1
     4    16    17   ar
     5    17    18   ar
     6     1    18    1
     7     1     2    1
     8     2     3   ar
     9     3     4   ar
    10     4     5   ar
    11     5     6   ar
    12     6    12    1
    13    12    13    3
    14     6     7   ar
    15     7     8   ar
    16     8     9   ar
    17     9    10   ar
    18    10    11   ar
    19    11    14    1
    20    14    15    1
    21     1    28    1
    22    28    29    1
    23    28    41    1
    24    41    42    1
    25    42    43    1
    26    43    44    1
    27    43    45    1
    28    28    31    1
    29    31    32   ar
    30    32    33   ar
    31    33    37    1
    32    37    38    1
    33    33    34   ar
    34    34    35   ar
    35    35    39    1
    36    39    40    1
    37    35    36   ar
    38    18    19   ar
    39    19    20   ar
    40    20    22    1
    41    22    23    1
    42    22    24    1
    43    20    21   ar
    44    21    16   ar
    45    11     2   ar
    46    36    31   ar
    47     9     4   ar
    48    29    30    1
@<TRIPOS>MOLECULE
*****
 45 48 0 0 0
SMALL
GASTEIGER

@<TRIPOS>ATOM
      1 C          61.9799   88.3903   10.4502 C.3     1  UNL1        0.0779
      2 C          62.4664   87.3086   11.3684 C.ar    1  UNL1        0.0373
      3 C          62.2559   85.8678   11.0079 C.ar    1  UNL1        0.0023
      4 C          62.7424   84.7861   11.9260 C.ar    1  UNL1        0.0183
      5 C          62.5318   83.3454   11.5655 C.ar    1  UNL1        0.0118
      6 C          63.0184   82.2636   12.4837 C.ar    1  UNL1        0.0685
      7 C          63.7155   82.6226   13.7625 C.ar    1  UNL1        0.0118
      8 C          63.9260   84.0633   14.1230 C.ar    1  UNL1        0.0199
      9 C          63.4395   85.1450   13.2048 C.ar    1  UNL1        0.0844
     10 N          63.6501   86.5857   13.5654 N.ar    1  UNL1       -0.2119
     11 C          63.1635   87.6675   12.6472 C.ar    1  UNL1        0.2211
     12 C          62.8079   80.8229   12.1232 C.1     1  UNL1        0.1004
     13 N          62.5973   79.3822   11.7626 N.1     1  UNL1       -0.1908
     14 O          63.3741   89.1082   13.0077 O.3     1  UNL1       -0.4563
     15 C          63.9641   89.4698   14.3385 C.3     1  UNL1        0.2542
     16 C          60.2797   86.2441    7.5775 C.ar    1  UNL1        0.2257
     17 C          61.0623   86.5995    8.8067 C.ar    1  UNL1        0.0539
     18 C          61.1973   88.0349    9.2209 C.ar    1  UNL1       -0.0083
     19 C          60.5497   89.1148    8.4058 C.ar    1  UNL1        0.0307
     20 C          59.7671   88.7593    7.1765 C.ar    1  UNL1        0.1346
     21 N          59.6321   87.3240    6.7623 N.ar    1  UNL1       -0.1967
     22 N          59.1195   89.8392    6.3614 N.pl3   1  UNL1       -0.2897
     23 C          59.9662   90.7902    5.5685 C.3     1  UNL1        0.1136
     24 C          57.6252   89.9681    6.3392 C.3     1  UNL1        0.1136
     25 O          60.1447   84.8087    7.1633 O.3     1  UNL1       -0.4602
     26 C          62.5192   84.4609    6.1678 C.3     1  UNL1        0.0512
     27 C          61.0360   84.2496    6.0941 C.3     1  UNL1        0.2072
     28 C          62.2759   89.8275   10.7613 C.3     1  UNL1        0.1161
     29 O          63.6609   89.6616   10.2097 O.3     1  UNL1       -0.3820
     30 H          64.0615   90.5345   10.0737 H       1  UNL1        0.2107
     31 C          60.8909   89.9934   11.3129 C.ar    1  UNL1        0.0117
     32 C          60.1408   91.2721   11.0844 C.ar    1  UNL1        0.0559
     33 C          58.7558   91.4380   11.6360 C.ar    1  UNL1        0.2272
     34 N          58.1209   90.3252   12.4161 N.ar    1  UNL1       -0.1767
     35 C          58.8710   89.0465   12.6446 C.ar    1  UNL1        0.2272
     36 C          60.2560   88.8806   12.0930 C.ar    1  UNL1        0.0559
     37 O          58.0057   92.7168   11.4075 O.3     1  UNL1       -0.4561
     38 C          58.2909   93.9165   12.2616 C.3     1  UNL1        0.2542
     39 O          58.2361   87.9337   13.4247 O.3     1  UNL1       -0.4561
     40 C          56.7470   87.8959   13.6010 C.3     1  UNL1        0.2542
     41 C          62.5720   91.2647   11.0724 C.3     1  UNL1        0.0491
     42 C          63.6758   91.9769   10.3482 C.3     1  UNL1        0.0750
     43 N          64.9080   92.4018   11.0907 N.3     1  UNL1       -0.2702
     44 C          65.0235   92.1411   12.5633 C.3     1  UNL1        0.0897
     45 C          66.0246   93.0875   10.3605 C.3     1  UNL1        0.0897
@<TRIPOS>BOND
     1    26    27    1
     2    27    25    1
     3    25    16    1
     4    16    17   ar
     5    17    18   ar
     6     1    18    1
     7     1     2    1
     8     2     3   ar
     9     3     4   ar
    10     4     5   ar
    11     5     6   ar
    12     6    12    1
    13    12    13    3
    14     6     7   ar
    15     7     8   ar
    16     8     9   ar
    17     9    10   ar
    18    10    11   ar
    19    11    14    1
    20    14    15    1
    21     1    28    1
    22    28    29    1
    23    28    41    1
    24    41    42    1
    25    42    43    1
    26    43    44    1
    27    43    45    1
    28    28    31    1
    29    31    32   ar
    30    32    33   ar
    31    33    37    1
    32    37    38    1
    33    33    34   ar
    34    34    35   ar
    35    35    39    1
    36    39    40    1
    37    35    36   ar
    38    18    19   ar
    39    19    20   ar
    40    20    22    1
    41    22    23    1
    42    22    24    1
    43    20    21   ar
    44    21    16   ar
    45    11     2   ar
    46    36    31   ar
    47     9     4   ar
    48    29    30    1
@<TRIPOS>MOLECULE
*****
 45 48 0 0 0
SMALL
GASTEIGER

@<TRIPOS>ATOM
      1 C          62.6932   89.1513   11.7349 C.3     1  UNL1        0.0779
      2 C          63.0325   87.7933   12.2741 C.ar    1  UNL1        0.0373
      3 C          62.8162   86.5744   11.4270 C.ar    1  UNL1        0.0023
      4 C          63.1555   85.2165   11.9661 C.ar    1  UNL1        0.0183
      5 C          62.9392   83.9976   11.1189 C.ar    1  UNL1        0.0118
      6 C          63.2785   82.6396   11.6581 C.ar    1  UNL1        0.0685
      7 C          63.8342   82.5004   13.0444 C.ar    1  UNL1        0.0118
      8 C          64.0506   83.7193   13.8915 C.ar    1  UNL1        0.0199
      9 C          63.7113   85.0772   13.3524 C.ar    1  UNL1        0.0844
     10 N          63.9276   86.2961   14.1996 N.ar    1  UNL1       -0.2119
     11 C          63.5882   87.6541   13.6604 C.ar    1  UNL1        0.2211
     12 C          63.0622   81.4208   10.8110 C.1     1  UNL1        0.1004
     13 N          62.8458   80.2020    9.9638 N.1     1  UNL1       -0.1908
     14 O          63.8046   88.8729   14.5076 O.3     1  UNL1       -0.4563
     15 C          63.9871   88.7333   15.9898 C.3     1  UNL1        0.2542
     16 C          64.8967   92.4254   11.3179 C.ar    1  UNL1        0.2257
     17 C          64.0310   91.2474   10.9823 C.ar    1  UNL1        0.0539
     18 C          63.5589   90.3293   12.0706 C.ar    1  UNL1       -0.0083
     19 C          63.9525   90.5893   13.4944 C.ar    1  UNL1        0.0307
     20 C          64.8183   91.7674   13.8301 C.ar    1  UNL1        0.1346
     21 N          65.2904   92.6854   12.7419 N.ar    1  UNL1       -0.1967
     22 N          65.2120   92.0273   15.2540 N.pl3   1  UNL1       -0.2897
     23 C          66.6327   92.3734   15.5880 C.3     1  UNL1        0.1136
     24 C          64.1849   91.9412   16.3438 C.3     1  UNL1        0.1136
     25 O          65.3688   93.3435   10.2297 O.3     1  UNL1       -0.4602
     26 C          67.8339   92.6607    9.7743 C.3     1  UNL1        0.0512
     27 C          66.8209   93.7073   10.1327 C.3     1  UNL1        0.2072
     28 C          61.4880   89.3312   10.8602 C.3     1  UNL1        0.1161
     29 O          62.3783   89.4555    9.6593 O.3     1  UNL1       -0.3820
     30 H          61.8468   89.3692    8.8525 H       1  UNL1        0.2107
     31 C          60.5978   89.2069   12.0610 C.ar    1  UNL1        0.0117
     32 C          61.1853   89.2687   13.4397 C.ar    1  UNL1        0.0559
     33 C          60.2950   89.1444   14.6406 C.ar    1  UNL1        0.2272
     34 N          58.8173   88.9583   14.4627 N.ar    1  UNL1       -0.1767
     35 C          58.2298   88.8965   13.0839 C.ar    1  UNL1        0.2272
     36 C          59.1201   89.0208   11.8831 C.ar    1  UNL1        0.0559
     37 O          60.8826   89.2062   16.0194 O.3     1  UNL1       -0.4561
     38 C          61.2437   87.9401   16.7382 C.3     1  UNL1        0.2542
     39 O          56.7521   88.7104   12.9060 O.3     1  UNL1       -0.4561
     40 C          56.0561   87.5583   13.5681 C.3     1  UNL1        0.2542
     41 C          60.2829   89.5111    9.9854 C.3     1  UNL1        0.0491
     42 C          60.2955   88.9970    8.5762 C.3     1  UNL1        0.0750
     43 N          60.0665   87.5391    8.3077 N.3     1  UNL1       -0.2702
     44 C          58.7348   87.0699    7.8013 C.3     1  UNL1        0.0897
     45 C          61.1692   86.5504    8.5457 C.3     1  UNL1        0.0897
@<TRIPOS>BOND
     1    26    27    1
     2    27    25    1
     3    25    16    1
     4    16    17   ar
     5    17    18   ar
     6     1    18    1
     7     1     2    1
     8     2     3   ar
     9     3     4   ar
    10     4     5   ar
    11     5     6   ar
    12     6    12    1
    13    12    13    3
    14     6     7   ar
    15     7     8   ar
    16     8     9   ar
    17     9    10   ar
    18    10    11   ar
    19    11    14    1
    20    14    15    1
    21     1    28    1
    22    28    29    1
    23    28    41    1
    24    41    42    1
    25    42    43    1
    26    43    44    1
    27    43    45    1
    28    28    31    1
    29    31    32   ar
    30    32    33   ar
    31    33    37    1
    32    37    38    1
    33    33    34   ar
    34    34    35   ar
    35    35    39    1
    36    39    40    1
    37    35    36   ar
    38    18    19   ar
    39    19    20   ar
    40    20    22    1
    41    22    23    1
    42    22    24    1
    43    20    21   ar
    44    21    16   ar
    45    11     2   ar
    46    36    31   ar
    47     9     4   ar
    48    29    30    1
@<TRIPOS>MOLECULE
*****
 45 48 0 0 0
SMALL
GASTEIGER

@<TRIPOS>ATOM
      1 C          61.8748   88.8438   10.3098 C.3     1  UNL1        0.0779
      2 C          62.0539   87.3821   10.5953 C.ar    1  UNL1        0.0373
      3 C          62.6604   86.9404   11.8941 C.ar    1  UNL1        0.0023
      4 C          62.8395   85.4788   12.1795 C.ar    1  UNL1        0.0183
      5 C          63.4460   85.0370   13.4784 C.ar    1  UNL1        0.0118
      6 C          63.6251   83.5753   13.7638 C.ar    1  UNL1        0.0685
      7 C          63.1976   82.5554   12.7504 C.ar    1  UNL1        0.0118
      8 C          62.5910   82.9971   11.4516 C.ar    1  UNL1        0.0199
      9 C          62.4120   84.4588   11.1661 C.ar    1  UNL1        0.0844
     10 N          61.8054   84.9005    9.8673 N.ar    1  UNL1       -0.2119
     11 C          61.6264   86.3622    9.5819 C.ar    1  UNL1        0.2211
     12 C          64.2316   83.1336   15.0626 C.1     1  UNL1        0.1004
     13 N          64.8382   82.6919   16.3615 N.1     1  UNL1       -0.1908
     14 O          61.0198   86.8039    8.2830 O.3     1  UNL1       -0.4563
     15 C          60.1362   85.8690    7.5115 C.3     1  UNL1        0.2542
     16 C          64.2614   91.9670   10.8573 C.ar    1  UNL1        0.2257
     17 C          63.3799   90.9577   10.1833 C.ar    1  UNL1        0.0539
     18 C          62.7563   89.8531   10.9838 C.ar    1  UNL1       -0.0083
     19 C          63.0142   89.7577   12.4584 C.ar    1  UNL1        0.0307
     20 C          63.8957   90.7670   13.1325 C.ar    1  UNL1        0.1346
     21 N          64.5193   91.8716   12.3320 N.ar    1  UNL1       -0.1967
     22 N          64.1536   90.6715   14.6070 N.pl3   1  UNL1       -0.2897
     23 C          63.3945   89.6804   15.4385 C.3     1  UNL1        0.1136
     24 C          65.1705   91.5673   15.2501 C.3     1  UNL1        0.1136
     25 O          64.8850   93.0717   10.0568 O.3     1  UNL1       -0.4602
     26 C          67.4470   92.6408   10.0378 C.3     1  UNL1        0.0512
     27 C          66.2810   93.5256   10.3654 C.3     1  UNL1        0.2072
     28 C          60.8142   89.2962    9.3504 C.3     1  UNL1        0.1161
     29 O          61.6782   88.8774    8.1979 O.3     1  UNL1       -0.3820
     30 H          61.1461   88.8524    7.3873 H       1  UNL1        0.2107
     31 C          59.9503   89.7150   10.5028 C.ar    1  UNL1        0.0117
     32 C          59.2792   91.0564   10.4884 C.ar    1  UNL1        0.0559
     33 C          58.4153   91.4753   11.6409 C.ar    1  UNL1        0.2272
     34 N          58.2224   90.5527   12.8077 N.ar    1  UNL1       -0.1767
     35 C          58.8935   89.2113   12.8222 C.ar    1  UNL1        0.2272
     36 C          59.7574   88.7925   11.6697 C.ar    1  UNL1        0.0559
     37 O          57.7441   92.8167   11.6264 O.3     1  UNL1       -0.4561
     38 C          58.3745   93.9784   12.3358 C.3     1  UNL1        0.2542
     39 O          58.7006   88.2887   13.9891 O.3     1  UNL1       -0.4561
     40 C          59.1883   88.6887   15.3500 C.3     1  UNL1        0.2542
     41 C          59.7537   89.7486    8.3909 C.3     1  UNL1        0.0491
     42 C          59.8171   89.3311    6.9515 C.3     1  UNL1        0.0750
     43 N          59.5102   90.3229    5.8688 N.3     1  UNL1       -0.2702
     44 C          60.6156   90.8614    5.0097 C.3     1  UNL1        0.0897
     45 C          58.0978   90.7761    5.6452 C.3     1  UNL1        0.0897
@<TRIPOS>BOND
     1    26    27    1
     2    27    25    1
     3    25    16    1
     4    16    17   ar
     5    17    18   ar
     6     1    18    1
     7     1     2    1
     8     2     3   ar
     9     3     4   ar
    10     4     5   ar
    11     5     6   ar
    12     6    12    1
    13    12    13    3
    14     6     7   ar
    15     7     8   ar
    16     8     9   ar
    17     9    10   ar
    18    10    11   ar
    19    11    14    1
    20    14    15    1
    21     1    28    1
    22    28    29    1
    23    28    41    1
    24    41    42    1
    25    42    43    1
    26    43    44    1
    27    43    45    1
    28    28    31    1
    29    31    32   ar
    30    32    33   ar
    31    33    37    1
    32    37    38    1
    33    33    34   ar
    34    34    35   ar
    35    35    39    1
    36    39    40    1
    37    35    36   ar
    38    18    19   ar
    39    19    20   ar
    40    20    22    1
    41    22    23    1
    42    22    24    1
    43    20    21   ar
    44    21    16   ar
    45    11     2   ar
    46    36    31   ar
    47     9     4   ar
    48    29    30    1
