@<TRIPOS>MOLECULE
*****
 33 35 0 0 0
SMALL
GASTEIGER

@<TRIPOS>ATOM
      1 C          64.1021   88.2323   14.8526 C.3     1  UNL1        0.0527
      2 C          64.0708   89.2874   13.7868 C.ar    1  UNL1        0.0673
      3 N          64.6552   90.6648   13.8923 N.ar    1  UNL1       -0.2282
      4 C          64.3952   91.3790   12.5991 C.ar    1  UNL1        0.1664
      5 S          63.6501   90.4429   11.6943 S.2     1  UNL1       -0.0517
      6 C          63.4497   89.1502   12.4283 C.ar    1  UNL1        0.0457
      7 N          64.8078   92.7828   12.2687 N.am    1  UNL1       -0.2483
      8 C          65.8798   93.0290   11.2489 C.2     1  UNL1        0.3094
      9 O          66.5393   91.8715   10.5594 O.2     1  UNL1       -0.2522
     10 N          66.2924   94.4328   10.9185 N.am    1  UNL1       -0.2572
     11 C          65.7262   95.6835   11.5226 C.3     1  UNL1        0.0955
     12 C          66.4276   96.8560   10.9035 C.3     1  UNL1        0.0238
     13 C          67.4272   96.3299    9.9166 C.3     1  UNL1        0.0310
     14 C          67.3437   94.8322    9.9259 C.3     1  UNL1        0.1528
     15 H          64.3750   93.5425   12.7212 H       1  UNL1        0.1583
     16 C          68.1670   93.8982    9.0895 C.2     1  UNL1        0.2375
     17 N          69.1970   93.0213    9.7375 N.am    1  UNL1       -0.3275
     18 O          67.9602   93.8410    7.6048 O.2     1  UNL1       -0.2736
     19 H          69.3328   93.0587   10.7119 H       1  UNL1        0.1450
     20 H          69.7373   92.4082    9.1885 H       1  UNL1        0.1450
     21 C          62.7507   87.9339   11.8971 C.ar    1  UNL1        0.0099
     22 C          61.5937   88.0854   10.9547 C.ar    1  UNL1        0.0212
     23 C          60.8948   86.8691   10.4235 C.ar    1  UNL1        0.0985
     24 N          61.3530   85.5013   10.8348 N.ar    1  UNL1       -0.2479
     25 C          62.5101   85.3498   11.7772 C.ar    1  UNL1        0.0663
     26 C          63.2089   86.5661   12.3084 C.ar    1  UNL1        0.0155
     27 C          62.9683   83.9819   12.1884 C.3     1  UNL1        0.1226
     28 C          63.3547   83.6849   10.7698 C.3     1  UNL1        0.0145
     29 C          62.5818   84.2790   13.6070 C.3     1  UNL1        0.0145
     30 C          63.4265   82.6141   12.5997 C.3     1  UNL1        0.4020
     31 F          63.8847   81.2463   13.0109 F       1  UNL1       -0.1696
     32 F          64.6653   83.2097   13.2003 F       1  UNL1       -0.1696
     33 F          62.1877   82.0186   11.9991 F       1  UNL1       -0.1696
@<TRIPOS>BOND
     1     1     2    1
     2     2     3   ar
     3     3     4   ar
     4     4     7    1
     5     7     8   am
     6     8     9    2
     7     8    10   am
     8    10    11    1
     9    11    12    1
    10    12    13    1
    11    13    14    1
    12    14    16    1
    13    16    17   am
    14    16    18    2
    15     4     5   ar
    16     5     6   ar
    17     6    21    1
    18    21    22   ar
    19    22    23   ar
    20    23    24   ar
    21    24    25   ar
    22    25    27    1
    23    27    28    1
    24    27    29    1
    25    27    30    1
    26    30    31    1
    27    30    32    1
    28    30    33    1
    29    25    26   ar
    30     6     2   ar
    31    26    21   ar
    32    14    10    1
    33     7    15    1
    34    17    19    1
    35    17    20    1
@<TRIPOS>MOLECULE
*****
 33 35 0 0 0
SMALL
GASTEIGER

@<TRIPOS>ATOM
      1 C          60.7283   89.9684   11.5809 C.3     1  UNL1        0.0527
      2 C          61.6466   88.7889   11.7050 C.ar    1  UNL1        0.0673
      3 N          61.3959   87.4150   11.1578 N.ar    1  UNL1       -0.2282
      4 C          62.5712   86.5531   11.5127 C.ar    1  UNL1        0.1664
      5 S          63.5482   87.3944   12.2792 S.2     1  UNL1       -0.0517
      6 C          62.9768   88.7762   12.3981 C.ar    1  UNL1        0.0457
      7 N          62.7398   85.1043   11.1625 N.am    1  UNL1       -0.2483
      8 C          62.4480   84.0466   12.1853 C.2     1  UNL1        0.3094
      9 O          61.9875   84.4377   13.5583 O.2     1  UNL1       -0.2522
     10 N          62.6166   82.5979   11.8351 N.am    1  UNL1       -0.2572
     11 C          63.0671   82.0577   10.5103 C.3     1  UNL1        0.0955
     12 C          63.0933   80.5609   10.6047 C.3     1  UNL1        0.0238
     13 C          62.6589   80.1760   11.9879 C.3     1  UNL1        0.0310
     14 C          62.3643   81.4350   12.7484 C.3     1  UNL1        0.1528
     15 H          63.0421   84.8477   10.2614 H       1  UNL1        0.1583
     16 C          61.8992   81.5166   14.1720 C.2     1  UNL1        0.2375
     17 N          62.7344   82.2287   15.1944 N.am    1  UNL1       -0.3275
     18 O          60.5986   80.8861   14.5734 O.2     1  UNL1       -0.2736
     19 H          63.5880   82.6425   14.9310 H       1  UNL1        0.1450
     20 H          62.4291   82.2822   16.1288 H       1  UNL1        0.1450
     21 C          63.6223   89.9409   13.0888 C.ar    1  UNL1        0.0099
     22 C          63.5329   90.0718   14.5803 C.ar    1  UNL1        0.0212
     23 C          64.1784   91.2364   15.2710 C.ar    1  UNL1        0.0985
     24 N          64.9133   92.2701   14.4700 N.ar    1  UNL1       -0.2479
     25 C          65.0027   92.1391   12.9785 C.ar    1  UNL1        0.0663
     26 C          64.3572   90.9745   12.2878 C.ar    1  UNL1        0.0155
     27 C          65.7375   93.1728   12.1775 C.3     1  UNL1        0.1226
     28 C          64.9991   92.7426   10.9448 C.3     1  UNL1        0.0145
     29 C          66.4760   93.6030   13.4103 C.3     1  UNL1        0.0145
     30 C          66.4724   94.2064   11.3766 C.3     1  UNL1        0.4020
     31 F          67.2073   95.2401   10.5756 F       1  UNL1       -0.1696
     32 F          66.8455   93.1601   10.3686 F       1  UNL1       -0.1696
     33 F          66.0993   95.2527   12.3846 F       1  UNL1       -0.1696
@<TRIPOS>BOND
     1     1     2    1
     2     2     3   ar
     3     3     4   ar
     4     4     7    1
     5     7     8   am
     6     8     9    2
     7     8    10   am
     8    10    11    1
     9    11    12    1
    10    12    13    1
    11    13    14    1
    12    14    16    1
    13    16    17   am
    14    16    18    2
    15     4     5   ar
    16     5     6   ar
    17     6    21    1
    18    21    22   ar
    19    22    23   ar
    20    23    24   ar
    21    24    25   ar
    22    25    27    1
    23    27    28    1
    24    27    29    1
    25    27    30    1
    26    30    31    1
    27    30    32    1
    28    30    33    1
    29    25    26   ar
    30     6     2   ar
    31    26    21   ar
    32    14    10    1
    33     7    15    1
    34    17    19    1
    35    17    20    1
@<TRIPOS>MOLECULE
*****
 33 35 0 0 0
SMALL
GASTEIGER

@<TRIPOS>ATOM
      1 C          61.9438   90.6130   11.7286 C.3     1  UNL1        0.0527
      2 C          62.5341   89.2735   12.0564 C.ar    1  UNL1        0.0673
      3 N          62.3368   88.0082   11.2755 N.ar    1  UNL1       -0.2282
      4 C          63.1061   86.9168   11.9591 C.ar    1  UNL1        0.1664
      5 S          63.7788   87.5078   13.1625 S.2     1  UNL1       -0.0517
      6 C          63.4253   88.9643   13.2227 C.ar    1  UNL1        0.0457
      7 N          63.1882   85.4859   11.5169 N.am    1  UNL1       -0.2483
      8 C          62.7642   84.3880   12.4469 C.2     1  UNL1        0.3094
      9 O          62.2580   84.7211   13.8191 O.2     1  UNL1       -0.2522
     10 N          62.8463   82.9570   12.0047 N.am    1  UNL1       -0.2572
     11 C          63.3291   82.4731   10.6695 C.3     1  UNL1        0.0955
     12 C          63.2412   80.9757   10.6597 C.3     1  UNL1        0.0238
     13 C          62.7042   80.5342   11.9888 C.3     1  UNL1        0.0310
     14 C          62.4601   81.7587   12.8201 C.3     1  UNL1        0.1528
     15 H          63.5205   85.2672   10.6163 H       1  UNL1        0.1583
     16 C          61.9239   81.7809   14.2207 C.2     1  UNL1        0.2375
     17 N          62.7157   82.4305   15.3168 N.am    1  UNL1       -0.3275
     18 O          60.5959   81.1535   14.5255 O.2     1  UNL1       -0.2736
     19 H          63.5873   82.8423   15.1168 H       1  UNL1        0.1450
     20 H          62.3637   82.4450   16.2361 H       1  UNL1        0.1450
     21 C          63.8827   89.9403   14.2660 C.ar    1  UNL1        0.0099
     22 C          62.9978   90.2585   15.4346 C.ar    1  UNL1        0.0212
     23 C          63.4553   91.2344   16.4778 C.ar    1  UNL1        0.0985
     24 N          64.7975   91.8921   16.3524 N.ar    1  UNL1       -0.2479
     25 C          65.6824   91.5738   15.1838 C.ar    1  UNL1        0.0663
     26 C          65.2250   90.5979   14.1405 C.ar    1  UNL1        0.0155
     27 C          67.0247   92.2315   15.0583 C.3     1  UNL1        0.1226
     28 C          66.9040   92.7456   16.4623 C.3     1  UNL1        0.0145
     29 C          67.1454   91.7175   13.6543 C.3     1  UNL1        0.0145
     30 C          68.3670   92.8892   14.9329 C.3     1  UNL1        0.4020
     31 F          69.7093   93.5469   14.8075 F       1  UNL1       -0.1696
     32 F          68.6774   92.0289   13.7441 F       1  UNL1       -0.1696
     33 F          68.0565   93.7495   16.1218 F       1  UNL1       -0.1696
@<TRIPOS>BOND
     1     1     2    1
     2     2     3   ar
     3     3     4   ar
     4     4     7    1
     5     7     8   am
     6     8     9    2
     7     8    10   am
     8    10    11    1
     9    11    12    1
    10    12    13    1
    11    13    14    1
    12    14    16    1
    13    16    17   am
    14    16    18    2
    15     4     5   ar
    16     5     6   ar
    17     6    21    1
    18    21    22   ar
    19    22    23   ar
    20    23    24   ar
    21    24    25   ar
    22    25    27    1
    23    27    28    1
    24    27    29    1
    25    27    30    1
    26    30    31    1
    27    30    32    1
    28    30    33    1
    29    25    26   ar
    30     6     2   ar
    31    26    21   ar
    32    14    10    1
    33     7    15    1
    34    17    19    1
    35    17    20    1
@<TRIPOS>MOLECULE
*****
 33 35 0 0 0
SMALL
GASTEIGER

@<TRIPOS>ATOM
      1 C          60.1796   90.1967   11.1138 C.3     1  UNL1        0.0527
      2 C          61.1257   89.0397   11.2408 C.ar    1  UNL1        0.0673
      3 N          60.7513   87.5875   11.2126 N.ar    1  UNL1       -0.2282
      4 C          62.0066   86.7820   11.3727 C.ar    1  UNL1        0.1664
      5 S          63.1567   87.7365   11.4998 S.2     1  UNL1       -0.0517
      6 C          62.6123   89.1318   11.4183 C.ar    1  UNL1        0.0457
      7 N          62.0960   85.2849   11.4007 N.am    1  UNL1       -0.2483
      8 C          62.5493   84.5838   12.6469 C.2     1  UNL1        0.3094
      9 O          62.9132   85.3799   13.8651 O.2     1  UNL1       -0.2522
     10 N          62.6387   83.0868   12.6749 N.am    1  UNL1       -0.2572
     11 C          62.3096   82.1625   11.5403 C.3     1  UNL1        0.0955
     12 C          62.5404   80.7557   12.0066 C.3     1  UNL1        0.0238
     13 C          63.0122   80.8105   13.4294 C.3     1  UNL1        0.0310
     14 C          63.0730   82.2512   13.8424 C.3     1  UNL1        0.1528
     15 H          61.8572   84.7625   10.6011 H       1  UNL1        0.1583
     16 C          63.4940   82.7659   15.1869 C.2     1  UNL1        0.2375
     17 N          62.4924   83.4335   16.0819 N.am    1  UNL1       -0.3275
     18 O          64.9169   82.6130   15.6366 O.2     1  UNL1       -0.2736
     19 H          61.5585   83.5338   15.7868 H       1  UNL1        0.1450
     20 H          62.7688   83.7712   16.9643 H       1  UNL1        0.1450
     21 C          63.4138   90.3971   11.5000 C.ar    1  UNL1        0.0099
     22 C          63.4701   91.3265   10.3240 C.ar    1  UNL1        0.0212
     23 C          64.2716   92.5918   10.4058 C.ar    1  UNL1        0.0985
     24 N          65.0168   92.9276   11.6635 N.ar    1  UNL1       -0.2479
     25 C          64.9605   91.9982   12.8395 C.ar    1  UNL1        0.0663
     26 C          64.1590   90.7330   12.7578 C.ar    1  UNL1        0.0155
     27 C          65.7057   92.3340   14.0973 C.3     1  UNL1        0.1226
     28 C          64.9867   91.2321   14.8175 C.3     1  UNL1        0.0145
     29 C          66.4247   93.4360   13.3770 C.3     1  UNL1        0.0145
     30 C          66.4509   92.6699   15.3550 C.3     1  UNL1        0.4020
     31 F          67.1961   93.0057   16.6127 F       1  UNL1       -0.1696
     32 F          65.3175   92.1244   16.1722 F       1  UNL1       -0.1696
     33 F          67.5844   93.2153   14.5378 F       1  UNL1       -0.1696
@<TRIPOS>BOND
     1     1     2    1
     2     2     3   ar
     3     3     4   ar
     4     4     7    1
     5     7     8   am
     6     8     9    2
     7     8    10   am
     8    10    11    1
     9    11    12    1
    10    12    13    1
    11    13    14    1
    12    14    16    1
    13    16    17   am
    14    16    18    2
    15     4     5   ar
    16     5     6   ar
    17     6    21    1
    18    21    22   ar
    19    22    23   ar
    20    23    24   ar
    21    24    25   ar
    22    25    27    1
    23    27    28    1
    24    27    29    1
    25    27    30    1
    26    30    31    1
    27    30    32    1
    28    30    33    1
    29    25    26   ar
    30     6     2   ar
    31    26    21   ar
    32    14    10    1
    33     7    15    1
    34    17    19    1
    35    17    20    1
@<TRIPOS>MOLECULE
*****
 33 35 0 0 0
SMALL
GASTEIGER

@<TRIPOS>ATOM
      1 C          60.7828   89.6196    9.9987 C.3     1  UNL1        0.0527
      2 C          61.5154   88.6950   10.9251 C.ar    1  UNL1        0.0673
      3 N          61.1021   87.2990   11.2861 N.ar    1  UNL1       -0.2282
      4 C          62.1212   86.7452   12.2374 C.ar    1  UNL1        0.1664
      5 S          63.1643   87.7990   12.4643 S.2     1  UNL1       -0.0517
      6 C          62.7899   89.0040   11.6532 C.ar    1  UNL1        0.0457
      7 N          62.1007   85.3778   12.8535 N.am    1  UNL1       -0.2483
      8 C          62.5844   84.1943   12.0690 C.2     1  UNL1        0.3094
      9 O          63.0885   84.3783   10.6682 O.2     1  UNL1       -0.2522
     10 N          62.5639   82.8269   12.6851 N.am    1  UNL1       -0.2572
     11 C          62.0906   82.4899   14.0680 C.3     1  UNL1        0.0955
     12 C          62.2473   81.0111   14.2641 C.3     1  UNL1        0.0238
     13 C          62.8176   80.4341   13.0025 C.3     1  UNL1        0.0310
     14 C          63.0133   81.5563   12.0266 C.3     1  UNL1        0.1528
     15 H          61.7699   85.2570   13.7729 H       1  UNL1        0.1583
     16 C          63.5620   81.4300   10.6363 C.2     1  UNL1        0.2375
     17 N          62.9598   80.4448    9.6789 N.am    1  UNL1       -0.3275
     18 O          64.7130   82.2891   10.2033 O.2     1  UNL1       -0.2736
     19 H          62.2044   79.8810    9.9630 H       1  UNL1        0.1450
     20 H          63.3200   80.3619    8.7664 H       1  UNL1        0.1450
     21 C          63.5556   90.2920   11.5828 C.ar    1  UNL1        0.0099
     22 C          63.4901   91.1367   10.3450 C.ar    1  UNL1        0.0212
     23 C          64.2557   92.4246   10.2746 C.ar    1  UNL1        0.0985
     24 N          65.0870   92.8678   11.4419 N.ar    1  UNL1       -0.2479
     25 C          65.1525   92.0231   12.6797 C.ar    1  UNL1        0.0663
     26 C          64.3868   90.7352   12.7501 C.ar    1  UNL1        0.0155
     27 C          65.9837   92.4662   13.8470 C.3     1  UNL1        0.1226
     28 C          65.6504   91.1936   14.5675 C.3     1  UNL1        0.0145
     29 C          66.3170   93.7389   13.1265 C.3     1  UNL1        0.0145
     30 C          66.8149   92.9094   15.0143 C.3     1  UNL1        0.4020
     31 F          67.6461   93.3526   16.1817 F       1  UNL1       -0.1696
     32 F          66.9060   91.4893   15.4886 F       1  UNL1       -0.1696
     33 F          66.7238   94.3296   14.5400 F       1  UNL1       -0.1696
@<TRIPOS>BOND
     1     1     2    1
     2     2     3   ar
     3     3     4   ar
     4     4     7    1
     5     7     8   am
     6     8     9    2
     7     8    10   am
     8    10    11    1
     9    11    12    1
    10    12    13    1
    11    13    14    1
    12    14    16    1
    13    16    17   am
    14    16    18    2
    15     4     5   ar
    16     5     6   ar
    17     6    21    1
    18    21    22   ar
    19    22    23   ar
    20    23    24   ar
    21    24    25   ar
    22    25    27    1
    23    27    28    1
    24    27    29    1
    25    27    30    1
    26    30    31    1
    27    30    32    1
    28    30    33    1
    29    25    26   ar
    30     6     2   ar
    31    26    21   ar
    32    14    10    1
    33     7    15    1
    34    17    19    1
    35    17    20    1
@<TRIPOS>MOLECULE
*****
 33 35 0 0 0
SMALL
GASTEIGER

@<TRIPOS>ATOM
      1 C          61.5069   88.3564   10.9569 C.3     1  UNL1        0.0527
      2 C          62.5112   89.3359   11.4877 C.ar    1  UNL1        0.0673
      3 N          62.7055   90.7449   11.0113 N.ar    1  UNL1       -0.2282
      4 C          63.8120   91.3583   11.8172 C.ar    1  UNL1        0.1664
      5 S          64.3015   90.3284   12.7916 S.2     1  UNL1       -0.0517
      6 C          63.4976   89.0785   12.5880 C.ar    1  UNL1        0.0457
      7 N          64.3368   92.7562   11.6738 N.am    1  UNL1       -0.2483
      8 C          65.5549   93.0180   10.8385 C.2     1  UNL1        0.3094
      9 O          66.2482   91.8819   10.1465 O.2     1  UNL1       -0.2522
     10 N          66.0796   94.4159   10.6951 N.am    1  UNL1       -0.2572
     11 C          65.4953   95.6458   11.3242 C.3     1  UNL1        0.0955
     12 C          66.3354   96.8193   10.9153 C.3     1  UNL1        0.0238
     13 C          67.4389   96.3146   10.0336 C.3     1  UNL1        0.0310
     14 C          67.2809   94.8291    9.8975 C.3     1  UNL1        0.1528
     15 H          63.8817   93.5018   12.1279 H       1  UNL1        0.1583
     16 C          68.1682   93.9172    9.1032 C.2     1  UNL1        0.2375
     17 N          69.1673   93.0452    9.8041 N.am    1  UNL1       -0.3275
     18 O          68.0565   93.8773    7.6079 O.2     1  UNL1       -0.2736
     19 H          69.2407   93.0714   10.7856 H       1  UNL1        0.1450
     20 H          69.7497   92.4467    9.2828 H       1  UNL1        0.1450
     21 C          63.6529   87.7962   13.3508 C.ar    1  UNL1        0.0099
     22 C          64.0843   87.8255   14.7871 C.ar    1  UNL1        0.0212
     23 C          64.2395   86.5433   15.5498 C.ar    1  UNL1        0.0985
     24 N          63.9633   85.2318   14.8763 N.ar    1  UNL1       -0.2479
     25 C          63.5319   85.2025   13.4400 C.ar    1  UNL1        0.0663
     26 C          63.3767   86.4847   12.6772 C.ar    1  UNL1        0.0155
     27 C          63.2558   83.8910   12.7664 C.3     1  UNL1        0.1226
     28 C          63.7918   83.1633   13.9636 C.3     1  UNL1        0.0145
     29 C          62.7197   84.6187   11.5693 C.3     1  UNL1        0.0145
     30 C          62.9796   82.5795   12.0929 C.3     1  UNL1        0.4020
     31 F          62.7034   81.2680   11.4193 F       1  UNL1       -0.1696
     32 F          63.9701   82.9221   11.0198 F       1  UNL1       -0.1696
     33 F          61.9891   82.2370   13.1660 F       1  UNL1       -0.1696
@<TRIPOS>BOND
     1     1     2    1
     2     2     3   ar
     3     3     4   ar
     4     4     7    1
     5     7     8   am
     6     8     9    2
     7     8    10   am
     8    10    11    1
     9    11    12    1
    10    12    13    1
    11    13    14    1
    12    14    16    1
    13    16    17   am
    14    16    18    2
    15     4     5   ar
    16     5     6   ar
    17     6    21    1
    18    21    22   ar
    19    22    23   ar
    20    23    24   ar
    21    24    25   ar
    22    25    27    1
    23    27    28    1
    24    27    29    1
    25    27    30    1
    26    30    31    1
    27    30    32    1
    28    30    33    1
    29    25    26   ar
    30     6     2   ar
    31    26    21   ar
    32    14    10    1
    33     7    15    1
    34    17    19    1
    35    17    20    1
@<TRIPOS>MOLECULE
*****
 33 35 0 0 0
SMALL
GASTEIGER

@<TRIPOS>ATOM
      1 C          62.6045   89.8636   10.7784 C.3     1  UNL1        0.0527
      2 C          62.8958   88.8352   11.8308 C.ar    1  UNL1        0.0673
      3 N          62.3881   87.4238   11.8487 N.ar    1  UNL1       -0.2282
      4 C          62.9244   86.7539   13.0791 C.ar    1  UNL1        0.1664
      5 S          63.7636   87.7512   13.8214 S.2     1  UNL1       -0.0517
      6 C          63.7459   89.0375   13.0499 C.ar    1  UNL1        0.0457
      7 N          62.6668   85.3357   13.4941 N.am    1  UNL1       -0.2483
      8 C          62.9629   84.2113   12.5464 C.2     1  UNL1        0.3094
      9 O          63.5166   84.5052   11.1836 O.2     1  UNL1       -0.2522
     10 N          62.7052   82.7931   12.9614 N.am    1  UNL1       -0.2572
     11 C          62.1568   82.3474   14.2845 C.3     1  UNL1        0.0955
     12 C          62.0634   80.8504   14.2671 C.3     1  UNL1        0.0238
     13 C          62.5541   80.3709   12.9332 C.3     1  UNL1        0.0310
     14 C          62.9507   81.5716   12.1262 C.3     1  UNL1        0.1528
     15 H          62.3033   85.1428   14.3885 H       1  UNL1        0.1583
     16 C          63.4969   81.5537   10.7294 C.2     1  UNL1        0.2375
     17 N          64.5984   82.4957   10.3426 N.am    1  UNL1       -0.3275
     18 O          62.9418   80.5939    9.7192 O.2     1  UNL1       -0.2736
     19 H          64.9628   83.1257   11.0056 H       1  UNL1        0.1450
     20 H          64.9568   82.4839    9.4258 H       1  UNL1        0.1450
     21 C          64.4541   90.3038   13.4307 C.ar    1  UNL1        0.0099
     22 C          64.8439   90.5447   14.8590 C.ar    1  UNL1        0.0212
     23 C          65.5521   91.8110   15.2398 C.ar    1  UNL1        0.0985
     24 N          65.8704   92.8364   14.1923 N.ar    1  UNL1       -0.2479
     25 C          65.4806   92.5955   12.7641 C.ar    1  UNL1        0.0663
     26 C          64.7724   91.3293   12.3833 C.ar    1  UNL1        0.0155
     27 C          65.7989   93.6209   11.7166 C.3     1  UNL1        0.1226
     28 C          66.3846   94.5146   12.7694 C.3     1  UNL1        0.0145
     29 C          65.2132   92.7273   10.6638 C.3     1  UNL1        0.0145
     30 C          66.1172   94.6464   10.6691 C.3     1  UNL1        0.4020
     31 F          66.4355   95.6718    9.6216 F       1  UNL1       -0.1696
     32 F          66.2890   93.5558    9.6537 F       1  UNL1       -0.1696
     33 F          65.9454   95.7370   11.6845 F       1  UNL1       -0.1696
@<TRIPOS>BOND
     1     1     2    1
     2     2     3   ar
     3     3     4   ar
     4     4     7    1
     5     7     8   am
     6     8     9    2
     7     8    10   am
     8    10    11    1
     9    11    12    1
    10    12    13    1
    11    13    14    1
    12    14    16    1
    13    16    17   am
    14    16    18    2
    15     4     5   ar
    16     5     6   ar
    17     6    21    1
    18    21    22   ar
    19    22    23   ar
    20    23    24   ar
    21    24    25   ar
    22    25    27    1
    23    27    28    1
    24    27    29    1
    25    27    30    1
    26    30    31    1
    27    30    32    1
    28    30    33    1
    29    25    26   ar
    30     6     2   ar
    31    26    21   ar
    32    14    10    1
    33     7    15    1
    34    17    19    1
    35    17    20    1
@<TRIPOS>MOLECULE
*****
 33 35 0 0 0
SMALL
GASTEIGER

@<TRIPOS>ATOM
      1 C          62.1482   86.7086   11.3947 C.3     1  UNL1        0.0527
      2 C          62.9916   87.1700   12.5461 C.ar    1  UNL1        0.0673
      3 N          63.5282   88.5564   12.7459 N.ar    1  UNL1       -0.2282
      4 C          64.3147   88.5694   14.0231 C.ar    1  UNL1        0.1664
      5 S          64.2643   87.1910   14.6126 S.2     1  UNL1       -0.0517
      6 C          63.4465   86.3261   13.6997 C.ar    1  UNL1        0.0457
      7 N          65.0268   89.7529   14.6081 N.am    1  UNL1       -0.2483
      8 C          65.4437   90.8901   13.7232 C.2     1  UNL1        0.3094
      9 O          65.1486   90.8436   12.2532 O.2     1  UNL1       -0.2522
     10 N          66.1557   92.0736   14.3082 N.am    1  UNL1       -0.2572
     11 C          66.5173   92.2598   15.7520 C.3     1  UNL1        0.0955
     12 C          67.2162   93.5800   15.8882 C.3     1  UNL1        0.0238
     13 C          67.2866   94.2097   14.5286 C.3     1  UNL1        0.0310
     14 C          66.6312   93.2786   13.5521 C.3     1  UNL1        0.1528
     15 H          65.2204   89.7834   15.5729 H       1  UNL1        0.1583
     16 C          66.4781   93.5118   12.0783 C.2     1  UNL1        0.2375
     17 N          67.2250   92.6528   11.1014 N.am    1  UNL1       -0.3275
     18 O          65.5781   94.6041   11.5812 O.2     1  UNL1       -0.2736
     19 H          67.8157   91.9359   11.4276 H       1  UNL1        0.1450
     20 H          67.1245   92.8059   10.1341 H       1  UNL1        0.1450
     21 C          63.1379   84.8725   13.9045 C.ar    1  UNL1        0.0099
     22 C          62.7448   84.3735   15.2633 C.ar    1  UNL1        0.0212
     23 C          62.4362   82.9200   15.4681 C.ar    1  UNL1        0.0985
     24 N          62.5207   81.9655   14.3141 N.ar    1  UNL1       -0.2479
     25 C          62.9137   82.4645   12.9552 C.ar    1  UNL1        0.0663
     26 C          63.2223   83.9180   12.7505 C.ar    1  UNL1        0.0155
     27 C          62.9982   81.5100   11.8012 C.3     1  UNL1        0.1226
     28 C          62.5874   80.3837   12.7027 C.3     1  UNL1        0.0145
     29 C          63.4091   82.6363   10.8997 C.3     1  UNL1        0.0145
     30 C          63.0827   80.5555   10.6472 C.3     1  UNL1        0.4020
     31 F          63.1671   79.6010    9.4931 F       1  UNL1       -0.1696
     32 F          62.6210   79.4393   11.5366 F       1  UNL1       -0.1696
     33 F          63.5444   81.6717    9.7578 F       1  UNL1       -0.1696
@<TRIPOS>BOND
     1     1     2    1
     2     2     3   ar
     3     3     4   ar
     4     4     7    1
     5     7     8   am
     6     8     9    2
     7     8    10   am
     8    10    11    1
     9    11    12    1
    10    12    13    1
    11    13    14    1
    12    14    16    1
    13    16    17   am
    14    16    18    2
    15     4     5   ar
    16     5     6   ar
    17     6    21    1
    18    21    22   ar
    19    22    23   ar
    20    23    24   ar
    21    24    25   ar
    22    25    27    1
    23    27    28    1
    24    27    29    1
    25    27    30    1
    26    30    31    1
    27    30    32    1
    28    30    33    1
    29    25    26   ar
    30     6     2   ar
    31    26    21   ar
    32    14    10    1
    33     7    15    1
    34    17    19    1
    35    17    20    1
@<TRIPOS>MOLECULE
*****
 33 35 0 0 0
SMALL
GASTEIGER

@<TRIPOS>ATOM
      1 C          58.5633   89.1957   12.0628 C.3     1  UNL1        0.0527
      2 C          60.0457   89.3719   11.9163 C.ar    1  UNL1        0.0673
      3 N          60.9933   89.8024   12.9965 N.ar    1  UNL1       -0.2282
      4 C          62.3741   89.8452   12.4118 C.ar    1  UNL1        0.1664
      5 S          62.2798   89.4411   10.9704 S.2     1  UNL1       -0.0517
      6 C          60.8408   89.1486   10.6642 C.ar    1  UNL1        0.0457
      7 N          63.6288   90.2253   13.1407 N.am    1  UNL1       -0.2483
      8 C          64.5305   91.2845   12.5795 C.2     1  UNL1        0.3094
      9 O          64.1775   91.9637   11.2894 O.2     1  UNL1       -0.2522
     10 N          65.7852   91.6646   13.3083 N.am    1  UNL1       -0.2572
     11 C          66.2664   91.0761   14.6014 C.3     1  UNL1        0.0955
     12 C          67.5576   91.7478   14.9643 C.3     1  UNL1        0.0238
     13 C          67.8744   92.7514   13.8955 C.3     1  UNL1        0.0310
     14 C          66.7789   92.7000   12.8720 C.3     1  UNL1        0.1528
     15 H          63.8605   89.7795   13.9874 H       1  UNL1        0.1583
     16 C          66.6926   93.5371   11.6304 C.2     1  UNL1        0.2375
     17 N          65.7258   94.6820   11.5634 N.am    1  UNL1       -0.3275
     18 O          67.5730   93.2293   10.4556 O.2     1  UNL1       -0.2736
     19 H          65.1479   94.8841   12.3344 H       1  UNL1        0.1450
     20 H          65.6691   95.2314   10.7484 H       1  UNL1        0.1450
     21 C          60.2930   88.7098    9.3384 C.ar    1  UNL1        0.0099
     22 C          60.0367   87.2552    9.0771 C.ar    1  UNL1        0.0212
     23 C          59.4890   86.8164    7.7515 C.ar    1  UNL1        0.0985
     24 N          59.1976   87.8324    6.6870 N.ar    1  UNL1       -0.2479
     25 C          59.4539   89.2870    6.9483 C.ar    1  UNL1        0.0663
     26 C          60.0016   89.7257    8.2740 C.ar    1  UNL1        0.0155
     27 C          59.1625   90.3029    5.8839 C.3     1  UNL1        0.1226
     28 C          60.6325   90.4568    5.6283 C.3     1  UNL1        0.0145
     29 C          57.6924   90.1490    6.1395 C.3     1  UNL1        0.0145
     30 C          58.8710   91.3188    4.8195 C.3     1  UNL1        0.4020
     31 F          58.5796   92.3347    3.7550 F       1  UNL1       -0.1696
     32 F          57.4047   91.0282    4.9435 F       1  UNL1       -0.1696
     33 F          60.3374   91.6095    4.6954 F       1  UNL1       -0.1696
@<TRIPOS>BOND
     1     1     2    1
     2     2     3   ar
     3     3     4   ar
     4     4     7    1
     5     7     8   am
     6     8     9    2
     7     8    10   am
     8    10    11    1
     9    11    12    1
    10    12    13    1
    11    13    14    1
    12    14    16    1
    13    16    17   am
    14    16    18    2
    15     4     5   ar
    16     5     6   ar
    17     6    21    1
    18    21    22   ar
    19    22    23   ar
    20    23    24   ar
    21    24    25   ar
    22    25    27    1
    23    27    28    1
    24    27    29    1
    25    27    30    1
    26    30    31    1
    27    30    32    1
    28    30    33    1
    29    25    26   ar
    30     6     2   ar
    31    26    21   ar
    32    14    10    1
    33     7    15    1
    34    17    19    1
    35    17    20    1
