@<TRIPOS>MOLECULE
*****
 45 51 0 0 0
SMALL
GASTEIGER

@<TRIPOS>ATOM
      1 C          59.5256   88.7446    7.5818 C.3     1  UNL1        0.1540
      2 O          59.6522   88.8223   10.5782 O.2     1  UNL1       -0.2526
      3 C          60.7349   89.4675    9.7648 C.2     1  UNL1        0.3043
      4 N          60.6715   89.4286    8.2666 N.am    1  UNL1       -0.2822
      5 N          61.8809   90.1515   10.4495 N.am    1  UNL1       -0.2641
      6 C          62.9635   90.7966    9.6360 C.3     1  UNL1        0.0967
      7 C          64.1095   91.4807   10.3207 C.3     1  UNL1        0.0418
      8 C          64.1728   91.5195   11.8189 C.3     1  UNL1        0.0848
      9 C          63.0901   90.8744   12.6324 C.3     1  UNL1        0.0418
     10 C          61.9442   90.1904   11.9476 C.3     1  UNL1        0.0967
     11 H          61.3821   89.8520    7.7327 H       1  UNL1        0.1514
     12 N          65.3188   92.2036   12.5036 N.am    1  UNL1       -0.2422
     13 C          66.4250   92.9591   11.8288 C.2     1  UNL1        0.3310
     14 O          66.5794   93.1634   10.3509 O.2     1  UNL1       -0.2501
     15 N          67.3496   93.4747   12.8914 N.am    1  UNL1       -0.1647
     16 C          66.8150   93.0377   14.2231 C.2     1  UNL1        0.0706
     17 C          67.3088   93.2536   15.6229 C.3     1  UNL1        0.0705
     18 C          66.5475   92.6840   16.7830 C.2     1  UNL1       -0.0199
     19 C          65.2923   91.8984   16.5433 C.2     1  UNL1       -0.0029
     20 C          64.7985   91.6824   15.1435 C.2     1  UNL1        0.0156
     21 C          65.5598   92.2521   13.9834 C.2     1  UNL1        0.0668
     22 C          58.5984   89.5320    6.7041 C.2     1  UNL1        0.2439
     23 O          57.1137   89.4026    6.8745 O.2     1  UNL1       -0.2731
     24 N          59.1559   90.4488    5.6559 N.am    1  UNL1       -0.2781
     25 C          60.6406   90.5782    5.4855 C.3     1  UNL1        0.0948
     26 C          61.1981   91.4950    4.4374 C.3     1  UNL1        0.0375
     27 C          60.2710   92.2825    3.5597 C.3     1  UNL1        0.0609
     28 C          58.7863   92.1531    3.7301 C.3     1  UNL1        0.0375
     29 C          58.2288   91.2362    4.7782 C.3     1  UNL1        0.0948
     30 N          60.8286   93.1992    2.5116 N.3     1  UNL1       -0.2738
     31 C          60.1340   94.4914    2.1988 C.3     1  UNL1        0.0720
     32 C          60.6917   95.4081    1.1506 C.3     1  UNL1        0.0174
     33 C          61.9441   95.0327    0.4153 C.3     1  UNL1        0.0029
     34 C          62.6387   93.7405    0.7281 C.3     1  UNL1        0.0174
     35 C          62.0810   92.8238    1.7762 C.3     1  UNL1        0.0720
     36 C          59.3067   87.2732    7.7747 C.3     1  UNL1        0.0514
     37 C          60.4491   86.3927    8.1867 C.2     1  UNL1       -0.0376
     38 C          61.3063   85.7391    7.1438 C.2     1  UNL1       -0.0066
     39 C          62.4488   84.8586    7.5558 C.2     1  UNL1        0.0182
     40 C          62.7339   84.6319    9.0109 C.2     1  UNL1        0.0777
     41 N          63.7827   83.8219    9.7137 N.2     1  UNL1       -0.2442
     42 C          63.5736   83.9751   11.1912 C.2     1  UNL1        0.0985
     43 C          62.3956   84.8796   11.4014 C.2     1  UNL1        0.0182
     44 C          61.8767   85.2856   10.0539 C.2     1  UNL1        0.0011
     45 C          60.7343   86.1660    9.6418 C.3     1  UNL1        0.0499
@<TRIPOS>BOND
     1     2     3    2
     2     3     4   am
     3     4     1    1
     4     1    36    1
     5    36    37    1
     6    37    38    2
     7    38    39    1
     8    39    40    2
     9    40    41    1
    10    41    42    2
    11    42    43    1
    12    43    44    2
    13    44    45    1
    14     1    22    1
    15    22    23    2
    16    22    24   am
    17    24    25    1
    18    25    26    1
    19    26    27    1
    20    27    30    1
    21    30    31    1
    22    31    32    1
    23    32    33    1
    24    33    34    1
    25    34    35    1
    26    27    28    1
    27    28    29    1
    28     3     5   am
    29     5     6    1
    30     6     7    1
    31     7     8    1
    32     8    12    1
    33    12    13   am
    34    13    14    2
    35    13    15    1
    36    15    16    2
    37    16    17    1
    38    17    18    1
    39    18    19    2
    40    19    20    1
    41    20    21    2
    42     8     9    1
    43     9    10    1
    44    45    37    1
    45    29    24    1
    46    10     5    1
    47    44    40    1
    48    35    30    1
    49    21    12    1
    50    21    16    1
    51     4    11    1
@<TRIPOS>MOLECULE
*****
 45 51 0 0 0
SMALL
GASTEIGER

@<TRIPOS>ATOM
      1 C          60.4036   88.2353    8.3819 C.3     1  UNL1        0.1540
      2 O          57.9703   89.2981    6.9855 O.2     1  UNL1       -0.2526
      3 C          59.3349   89.7675    6.5761 C.2     1  UNL1        0.3043
      4 N          60.5515   89.2361    7.2744 N.am    1  UNL1       -0.2822
      5 N          59.4830   90.7683    5.4686 N.am    1  UNL1       -0.2641
      6 C          60.8476   91.2376    5.0593 C.3     1  UNL1        0.0967
      7 C          60.9956   92.2384    3.9518 C.3     1  UNL1        0.0418
      8 C          59.7789   92.7697    3.2536 C.3     1  UNL1        0.0848
      9 C          58.4143   92.3004    3.6629 C.3     1  UNL1        0.0418
     10 C          58.2664   91.2996    4.7705 C.3     1  UNL1        0.0967
     11 H          61.4471   89.5442    7.0057 H       1  UNL1        0.1514
     12 N          59.9269   93.7705    2.1461 N.am    1  UNL1       -0.2422
     13 C          59.9843   95.2608    2.3063 C.2     1  UNL1        0.3310
     14 O          59.9038   96.0120    3.6021 O.2     1  UNL1       -0.2501
     15 N          60.1364   95.8680    0.9432 N.am    1  UNL1       -0.1647
     16 C          60.1731   94.7530   -0.0595 C.2     1  UNL1        0.0706
     17 C          60.3076   94.7506   -1.5535 C.3     1  UNL1        0.0705
     18 C          60.3126   93.4519   -2.3040 C.2     1  UNL1       -0.0199
     19 C          60.1831   92.1555   -1.5605 C.2     1  UNL1       -0.0029
     20 C          60.0486   92.1579   -0.0666 C.2     1  UNL1        0.0156
     21 C          60.0436   93.4566    0.6840 C.2     1  UNL1        0.0668
     22 C          60.2106   88.7027    9.7941 C.2     1  UNL1        0.2439
     23 O          58.9240   88.4155   10.5100 O.2     1  UNL1       -0.2731
     24 N          61.3042   89.4572   10.4905 N.am    1  UNL1       -0.2781
     25 C          62.5907   89.7443    9.7746 C.3     1  UNL1        0.0948
     26 C          63.6842   90.4987   10.4709 C.3     1  UNL1        0.0375
     27 C          63.4912   90.9662   11.8832 C.3     1  UNL1        0.0609
     28 C          62.2048   90.6790   12.5990 C.3     1  UNL1        0.0375
     29 C          61.1112   89.9245   11.9027 C.3     1  UNL1        0.0948
     30 N          64.5848   91.7206   12.5794 N.3     1  UNL1       -0.2738
     31 C          65.2930   92.8379   11.8723 C.3     1  UNL1        0.0720
     32 C          66.3866   93.5923   12.5687 C.3     1  UNL1        0.0174
     33 C          66.7720   93.2294   13.9721 C.3     1  UNL1        0.0029
     34 C          66.0638   92.1121   14.6793 C.3     1  UNL1        0.0174
     35 C          64.9703   91.3577   13.9830 C.3     1  UNL1        0.0720
     36 C          60.4486   86.7673    8.0773 C.3     1  UNL1        0.0514
     37 C          61.4702   85.8941    8.7436 C.2     1  UNL1       -0.0376
     38 C          62.5109   85.1949    7.9202 C.2     1  UNL1       -0.0066
     39 C          63.5325   84.3217    8.5865 C.2     1  UNL1        0.0182
     40 C          63.5133   84.1478   10.0763 C.2     1  UNL1        0.0777
     41 N          64.3853   83.3567   11.0057 N.2     1  UNL1       -0.2442
     42 C          63.8835   83.5670   12.4035 C.2     1  UNL1        0.0985
     43 C          62.7013   84.4880   12.3380 C.2     1  UNL1        0.0182
     44 C          62.4725   84.8469   10.8997 C.2     1  UNL1        0.0011
     45 C          61.4510   85.7201   10.2333 C.3     1  UNL1        0.0499
@<TRIPOS>BOND
     1     2     3    2
     2     3     4   am
     3     4     1    1
     4     1    36    1
     5    36    37    1
     6    37    38    2
     7    38    39    1
     8    39    40    2
     9    40    41    1
    10    41    42    2
    11    42    43    1
    12    43    44    2
    13    44    45    1
    14     1    22    1
    15    22    23    2
    16    22    24   am
    17    24    25    1
    18    25    26    1
    19    26    27    1
    20    27    30    1
    21    30    31    1
    22    31    32    1
    23    32    33    1
    24    33    34    1
    25    34    35    1
    26    27    28    1
    27    28    29    1
    28     3     5   am
    29     5     6    1
    30     6     7    1
    31     7     8    1
    32     8    12    1
    33    12    13   am
    34    13    14    2
    35    13    15    1
    36    15    16    2
    37    16    17    1
    38    17    18    1
    39    18    19    2
    40    19    20    1
    41    20    21    2
    42     8     9    1
    43     9    10    1
    44    45    37    1
    45    29    24    1
    46    10     5    1
    47    44    40    1
    48    35    30    1
    49    21    12    1
    50    21    16    1
    51     4    11    1
@<TRIPOS>MOLECULE
*****
 45 51 0 0 0
SMALL
GASTEIGER

@<TRIPOS>ATOM
      1 C          60.1461   89.1728    7.8575 C.3     1  UNL1        0.1540
      2 O          58.2307   90.7375    6.1596 O.2     1  UNL1       -0.2526
      3 C          59.6816   90.6693    5.7851 C.2     1  UNL1        0.3043
      4 N          60.6393   89.8869    6.6341 N.am    1  UNL1       -0.2822
      5 N          60.1749   91.3834    4.5616 N.am    1  UNL1       -0.2641
      6 C          61.6258   91.3151    4.1872 C.3     1  UNL1        0.0967
      7 C          62.1191   92.0292    2.9638 C.3     1  UNL1        0.0418
      8 C          61.1613   92.8116    2.1148 C.3     1  UNL1        0.0848
      9 C          59.7104   92.8799    2.4892 C.3     1  UNL1        0.0418
     10 C          59.2172   92.1657    3.7127 C.3     1  UNL1        0.0967
     11 H          61.5915   89.8421    6.3883 H       1  UNL1        0.1514
     12 N          61.6546   93.5257    0.8914 N.am    1  UNL1       -0.2422
     13 C          61.0724   93.4185   -0.4869 C.2     1  UNL1        0.3310
     14 O          59.8948   92.5785   -0.8837 O.2     1  UNL1       -0.2501
     15 N          61.8746   94.2989   -1.3986 N.am    1  UNL1       -0.1647
     16 C          62.9526   94.9502   -0.5839 C.2     1  UNL1        0.0706
     17 C          64.0405   95.9167   -0.9480 C.3     1  UNL1        0.0705
     18 C          64.9924   96.4052    0.1034 C.2     1  UNL1       -0.0199
     19 C          64.8564   95.9273    1.5187 C.2     1  UNL1       -0.0029
     20 C          63.7685   94.9609    1.8828 C.2     1  UNL1        0.0156
     21 C          62.8166   94.4723    0.8315 C.2     1  UNL1        0.0668
     22 C          60.1081   87.6736    7.8866 C.2     1  UNL1        0.2439
     23 O          59.3018   86.9238    6.8678 O.2     1  UNL1       -0.2731
     24 N          60.8764   86.9240    8.9344 N.am    1  UNL1       -0.2781
     25 C          61.6827   87.6737    9.9532 C.3     1  UNL1        0.0948
     26 C          62.4509   86.9243   11.0009 C.3     1  UNL1        0.0375
     27 C          62.4130   85.4250   11.0300 C.3     1  UNL1        0.0609
     28 C          61.6068   84.6753   10.0113 C.3     1  UNL1        0.0375
     29 C          60.8385   85.4248    8.9635 C.3     1  UNL1        0.0948
     30 N          63.1814   84.6756   12.0779 N.3     1  UNL1       -0.2738
     31 C          63.5210   83.2296   11.8685 C.3     1  UNL1        0.0720
     32 C          64.2893   82.4803   12.9164 C.3     1  UNL1        0.0174
     33 C          64.7181   83.1769   14.1737 C.3     1  UNL1        0.0029
     34 C          64.3784   84.6229   14.3831 C.3     1  UNL1        0.0174
     35 C          63.6101   85.3722   13.3353 C.3     1  UNL1        0.0720
     36 C          59.6908   89.9578    9.0519 C.3     1  UNL1        0.0514
     37 C          60.6428   90.2273   10.1794 C.2     1  UNL1       -0.0376
     38 C          60.2518   89.8905   11.5878 C.2     1  UNL1       -0.0066
     39 C          61.2038   90.1600   12.7153 C.2     1  UNL1        0.0182
     40 C          62.5466   90.7664   12.4344 C.2     1  UNL1        0.0777
     41 N          63.6859   91.1432   13.3344 N.2     1  UNL1       -0.2442
     42 C          64.7809   91.7130   12.4822 C.2     1  UNL1        0.0985
     43 C          64.3184   91.6883   11.0555 C.2     1  UNL1        0.0182
     44 C          62.9376   91.1033   11.0259 C.2     1  UNL1        0.0011
     45 C          61.9856   90.8337    9.8985 C.3     1  UNL1        0.0499
@<TRIPOS>BOND
     1     2     3    2
     2     3     4   am
     3     4     1    1
     4     1    36    1
     5    36    37    1
     6    37    38    2
     7    38    39    1
     8    39    40    2
     9    40    41    1
    10    41    42    2
    11    42    43    1
    12    43    44    2
    13    44    45    1
    14     1    22    1
    15    22    23    2
    16    22    24   am
    17    24    25    1
    18    25    26    1
    19    26    27    1
    20    27    30    1
    21    30    31    1
    22    31    32    1
    23    32    33    1
    24    33    34    1
    25    34    35    1
    26    27    28    1
    27    28    29    1
    28     3     5   am
    29     5     6    1
    30     6     7    1
    31     7     8    1
    32     8    12    1
    33    12    13   am
    34    13    14    2
    35    13    15    1
    36    15    16    2
    37    16    17    1
    38    17    18    1
    39    18    19    2
    40    19    20    1
    41    20    21    2
    42     8     9    1
    43     9    10    1
    44    45    37    1
    45    29    24    1
    46    10     5    1
    47    44    40    1
    48    35    30    1
    49    21    12    1
    50    21    16    1
    51     4    11    1
@<TRIPOS>MOLECULE
*****
 45 51 0 0 0
SMALL
GASTEIGER

@<TRIPOS>ATOM
      1 C          60.2509   89.0880    8.0523 C.3     1  UNL1        0.1540
      2 O          58.2092   90.5426    6.4044 O.2     1  UNL1       -0.2526
      3 C          59.6494   90.5423    5.9851 C.2     1  UNL1        0.3043
      4 N          60.6702   89.8150    6.8090 N.am    1  UNL1       -0.2822
      5 N          60.0688   91.2693    4.7419 N.am    1  UNL1       -0.2641
      6 C          61.5091   91.2690    4.3226 C.3     1  UNL1        0.0967
      7 C          61.9285   91.9961    3.0794 C.3     1  UNL1        0.0418
      8 C          60.9075   92.7234    2.2555 C.3     1  UNL1        0.0848
      9 C          59.4673   92.7237    2.6747 C.3     1  UNL1        0.0418
     10 C          59.0480   91.9966    3.9179 C.3     1  UNL1        0.0967
     11 H          61.6155   89.8148    6.5339 H       1  UNL1        0.1514
     12 N          61.3269   93.4504    1.0123 N.am    1  UNL1       -0.2422
     13 C          62.5010   94.3753    0.8855 C.2     1  UNL1        0.3310
     14 O          63.4617   94.7357    1.9796 O.2     1  UNL1       -0.2501
     15 N          62.5456   94.8767   -0.5275 N.am    1  UNL1       -0.1647
     16 C          61.3992   94.2616   -1.2741 C.2     1  UNL1        0.0706
     17 C          60.9437   94.3903   -2.6975 C.3     1  UNL1        0.0705
     18 C          59.7351   93.6375   -3.1692 C.2     1  UNL1       -0.0199
     19 C          58.9819   92.7559   -2.2175 C.2     1  UNL1       -0.0029
     20 C          59.4373   92.6273   -0.7941 C.2     1  UNL1        0.0156
     21 C          60.6460   93.3801   -0.3224 C.2     1  UNL1        0.0668
     22 C          60.2448   87.5882    8.0780 C.2     1  UNL1        0.2439
     23 O          59.5069   86.8229    7.0197 O.2     1  UNL1       -0.2731
     24 N          60.9766   86.8537    9.1620 N.am    1  UNL1       -0.2781
     25 C          61.7145   87.6189   10.2202 C.3     1  UNL1        0.0948
     26 C          62.4463   86.8845   11.3041 C.3     1  UNL1        0.0375
     27 C          62.4402   85.3847   11.3299 C.3     1  UNL1        0.0609
     28 C          61.7024   84.6194   10.2716 C.3     1  UNL1        0.0375
     29 C          60.9706   85.3539    9.1877 C.3     1  UNL1        0.0948
     30 N          63.1720   84.6503   12.4139 N.3     1  UNL1       -0.2738
     31 C          63.2578   83.1532   12.3797 C.3     1  UNL1        0.0720
     32 C          63.9896   82.4189   13.4637 C.3     1  UNL1        0.0174
     33 C          64.6357   83.1817   14.5820 C.3     1  UNL1        0.0029
     34 C          64.5500   84.6789   14.6162 C.3     1  UNL1        0.0174
     35 C          63.8182   85.4131   13.5322 C.3     1  UNL1        0.0720
     36 C          59.8377   89.8606    9.2697 C.3     1  UNL1        0.0514
     37 C          60.8561   90.2216   10.3103 C.2     1  UNL1       -0.0376
     38 C          60.5897   89.9229   11.7558 C.2     1  UNL1       -0.0066
     39 C          61.6081   90.2839   12.7964 C.2     1  UNL1        0.0182
     40 C          62.8928   90.9437   12.3912 C.2     1  UNL1        0.0777
     41 N          64.0751   91.4118   13.1868 N.2     1  UNL1       -0.2442
     42 C          65.0722   92.0000   12.2328 C.2     1  UNL1        0.0985
     43 C          64.5061   91.8952   10.8477 C.2     1  UNL1        0.0182
     44 C          63.1591   91.2424   10.9456 C.2     1  UNL1        0.0011
     45 C          62.1408   90.8814    9.9051 C.3     1  UNL1        0.0499
@<TRIPOS>BOND
     1     2     3    2
     2     3     4   am
     3     4     1    1
     4     1    36    1
     5    36    37    1
     6    37    38    2
     7    38    39    1
     8    39    40    2
     9    40    41    1
    10    41    42    2
    11    42    43    1
    12    43    44    2
    13    44    45    1
    14     1    22    1
    15    22    23    2
    16    22    24   am
    17    24    25    1
    18    25    26    1
    19    26    27    1
    20    27    30    1
    21    30    31    1
    22    31    32    1
    23    32    33    1
    24    33    34    1
    25    34    35    1
    26    27    28    1
    27    28    29    1
    28     3     5   am
    29     5     6    1
    30     6     7    1
    31     7     8    1
    32     8    12    1
    33    12    13   am
    34    13    14    2
    35    13    15    1
    36    15    16    2
    37    16    17    1
    38    17    18    1
    39    18    19    2
    40    19    20    1
    41    20    21    2
    42     8     9    1
    43     9    10    1
    44    45    37    1
    45    29    24    1
    46    10     5    1
    47    44    40    1
    48    35    30    1
    49    21    12    1
    50    21    16    1
    51     4    11    1
