@<TRIPOS>MOLECULE
*****
 21 23 0 0 0
SMALL
GASTEIGER

@<TRIPOS>ATOM
      1 C          65.8405   92.4913   12.1581 C.3     1  UNL1        0.0831
      2 C          66.5034   92.2521   13.4822 C.3     1  UNL1        0.0423
      3 C          65.9664   91.2042   14.4115 C.3     1  UNL1        0.0973
      4 N          64.7664   90.3954   14.0166 N.pl3   1  UNL1       -0.2870
      5 C          64.1035   90.6346   12.6924 C.ar    1  UNL1        0.0488
      6 C          62.9035   89.8258   12.2975 C.ar    1  UNL1        0.0146
      7 C          62.2406   90.0649   10.9734 C.ar    1  UNL1        0.0013
      8 C          62.7777   91.1129   10.0442 C.ar    1  UNL1       -0.0002
      9 C          63.9776   91.9216   10.4390 C.ar    1  UNL1       -0.0017
     10 C          64.6405   91.6825   11.7632 C.ar    1  UNL1        0.0059
     11 C          64.2294   89.3475   14.9458 C.ar    1  UNL1        0.0525
     12 C          63.4223   89.7503   16.1442 C.ar    1  UNL1        0.0157
     13 C          62.8852   88.7024   17.0734 C.ar    1  UNL1        0.0135
     14 C          63.1553   87.2517   16.8042 C.ar    1  UNL1        0.0683
     15 CL         62.6183   86.2038   17.7335 Cl      1  UNL1       -0.0814
     16 C          63.9625   86.8488   15.6058 C.ar    1  UNL1        0.0694
     17 CL         64.2326   85.3982   15.3365 Cl      1  UNL1       -0.0813
     18 C          64.4995   87.8968   14.6765 C.ar    1  UNL1        0.0271
     19 C          66.0603   94.9859   11.4663 C.3     1  UNL1        0.0899
     20 N          66.3776   93.5392   11.2289 N.3     1  UNL1       -0.2678
     21 C          67.2319   93.1404   10.0622 C.3     1  UNL1        0.0899
@<TRIPOS>BOND
     1    19    20    1
     2    20    21    1
     3     1    20    1
     4     1     2    1
     5     2     3    1
     6     3     4    1
     7     4    11    1
     8    11    12   ar
     9    12    13   ar
    10    13    14   ar
    11    14    15    1
    12    14    16   ar
    13    16    17    1
    14    16    18   ar
    15     4     5    1
    16     5     6   ar
    17     6     7   ar
    18     7     8   ar
    19     8     9   ar
    20     9    10   ar
    21    10     1    1
    22    18    11   ar
    23    10     5   ar
@<TRIPOS>MOLECULE
*****
 21 23 0 0 0
SMALL
GASTEIGER

@<TRIPOS>ATOM
      1 C          64.5370   90.1369   14.1514 C.3     1  UNL1        0.0831
      2 C          65.6859   90.9887   14.6032 C.3     1  UNL1        0.0423
      3 C          66.2115   92.0738   13.7108 C.3     1  UNL1        0.0973
      4 N          65.5882   92.3070   12.3666 N.pl3   1  UNL1       -0.2870
      5 C          64.4392   91.4551   11.9147 C.ar    1  UNL1        0.0488
      6 C          63.8159   91.6883   10.5705 C.ar    1  UNL1        0.0146
      7 C          62.6669   90.8364   10.1186 C.ar    1  UNL1        0.0013
      8 C          62.1413   89.7514   11.0110 C.ar    1  UNL1       -0.0002
      9 C          62.7647   89.5182   12.3552 C.ar    1  UNL1       -0.0017
     10 C          63.9136   90.3700   12.8071 C.ar    1  UNL1        0.0059
     11 C          66.1138   93.3921   11.4742 C.ar    1  UNL1        0.0525
     12 C          65.8725   94.8312   11.8213 C.ar    1  UNL1        0.0157
     13 C          66.3981   95.9163   10.9289 C.ar    1  UNL1        0.0135
     14 C          67.1650   95.5622    9.6894 C.ar    1  UNL1        0.0683
     15 CL         67.6906   96.6473    8.7970 Cl      1  UNL1       -0.0814
     16 C          67.4064   94.1230    9.3423 C.ar    1  UNL1        0.0694
     17 CL         68.1733   93.7689    8.1028 Cl      1  UNL1       -0.0813
     18 C          66.8808   93.0379   10.2347 C.ar    1  UNL1        0.0271
     19 C          64.3605   87.6193   14.7682 C.3     1  UNL1        0.0899
     20 N          64.0114   89.0518   15.0438 N.3     1  UNL1       -0.2678
     21 C          63.1366   89.3993   16.2118 C.3     1  UNL1        0.0899
@<TRIPOS>BOND
     1    19    20    1
     2    20    21    1
     3     1    20    1
     4     1     2    1
     5     2     3    1
     6     3     4    1
     7     4    11    1
     8    11    12   ar
     9    12    13   ar
    10    13    14   ar
    11    14    15    1
    12    14    16   ar
    13    16    17    1
    14    16    18   ar
    15     4     5    1
    16     5     6   ar
    17     6     7   ar
    18     7     8   ar
    19     8     9   ar
    20     9    10   ar
    21    10     1    1
    22    18    11   ar
    23    10     5   ar
@<TRIPOS>MOLECULE
*****
 21 23 0 0 0
SMALL
GASTEIGER

@<TRIPOS>ATOM
      1 C          64.0921   88.6020   14.0718 C.3     1  UNL1        0.0831
      2 C          64.5799   87.5115   14.9789 C.3     1  UNL1        0.0423
      3 C          64.3483   86.0746   14.6162 C.3     1  UNL1        0.0973
      4 N          63.6288   85.7281   13.3465 N.pl3   1  UNL1       -0.2870
      5 C          63.1410   86.8185   12.4393 C.ar    1  UNL1        0.0488
      6 C          62.4216   86.4720   11.1696 C.ar    1  UNL1        0.0146
      7 C          61.9338   87.5625   10.2624 C.ar    1  UNL1        0.0013
      8 C          62.1654   88.9994   10.6251 C.ar    1  UNL1       -0.0002
      9 C          62.8848   89.3459   11.8948 C.ar    1  UNL1       -0.0017
     10 C          63.3726   88.2555   12.8019 C.ar    1  UNL1        0.0059
     11 C          63.3972   84.2911   12.9839 C.ar    1  UNL1        0.0525
     12 C          64.1204   83.6860   11.8173 C.ar    1  UNL1        0.0157
     13 C          63.8888   82.2491   11.4547 C.ar    1  UNL1        0.0135
     14 C          62.9340   81.4172   12.2586 C.ar    1  UNL1        0.0683
     15 CL         62.7024   79.9802   11.8960 Cl      1  UNL1       -0.0814
     16 C          62.2108   82.0222   13.4252 C.ar    1  UNL1        0.0694
     17 CL         61.2560   81.1904   14.2292 Cl      1  UNL1       -0.0813
     18 C          62.4424   83.4592   13.7879 C.ar    1  UNL1        0.0271
     19 C          65.3183   90.8559   13.6642 C.3     1  UNL1        0.0899
     20 N          64.3237   90.0389   14.4344 N.3     1  UNL1       -0.2678
     21 C          63.5607   90.6589   15.5673 C.3     1  UNL1        0.0899
@<TRIPOS>BOND
     1    19    20    1
     2    20    21    1
     3     1    20    1
     4     1     2    1
     5     2     3    1
     6     3     4    1
     7     4    11    1
     8    11    12   ar
     9    12    13   ar
    10    13    14   ar
    11    14    15    1
    12    14    16   ar
    13    16    17    1
    14    16    18   ar
    15     4     5    1
    16     5     6   ar
    17     6     7   ar
    18     7     8   ar
    19     8     9   ar
    20     9    10   ar
    21    10     1    1
    22    18    11   ar
    23    10     5   ar
@<TRIPOS>MOLECULE
*****
 21 23 0 0 0
SMALL
GASTEIGER

@<TRIPOS>ATOM
      1 C          65.5195   92.7354   11.8189 C.3     1  UNL1        0.0831
      2 C          64.5011   91.7126   11.4108 C.3     1  UNL1        0.0423
      3 C          64.0390   90.6798   12.3956 C.3     1  UNL1        0.0973
      4 N          64.5953   90.6699   13.7886 N.pl3   1  UNL1       -0.2870
      5 C          65.6138   91.6927   14.1968 C.ar    1  UNL1        0.0488
      6 C          66.1701   91.6828   15.5897 C.ar    1  UNL1        0.0146
      7 C          67.1885   92.7056   15.9978 C.ar    1  UNL1        0.0013
      8 C          67.6506   93.7384   15.0130 C.ar    1  UNL1       -0.0002
      9 C          67.0943   93.7483   13.6200 C.ar    1  UNL1       -0.0017
     10 C          66.0759   92.7255   13.2119 C.ar    1  UNL1        0.0059
     11 C          64.1332   89.6371   14.7734 C.ar    1  UNL1        0.0525
     12 C          63.3798   90.0556   16.0011 C.ar    1  UNL1        0.0157
     13 C          62.9177   89.0229   16.9859 C.ar    1  UNL1        0.0135
     14 C          63.2090   87.5716   16.7431 C.ar    1  UNL1        0.0683
     15 CL         62.7469   86.5389   17.7279 Cl      1  UNL1       -0.0814
     16 C          63.9625   87.1531   15.5154 C.ar    1  UNL1        0.0694
     17 CL         64.2538   85.7018   15.2725 Cl      1  UNL1       -0.0813
     18 C          64.4245   88.1858   14.5305 C.ar    1  UNL1        0.0271
     19 C          65.3592   95.1329   10.8309 C.3     1  UNL1        0.0899
     20 N          65.9816   93.7681   10.8341 N.3     1  UNL1       -0.2678
     21 C          67.0661   93.4361    9.8524 C.3     1  UNL1        0.0899
@<TRIPOS>BOND
     1    19    20    1
     2    20    21    1
     3     1    20    1
     4     1     2    1
     5     2     3    1
     6     3     4    1
     7     4    11    1
     8    11    12   ar
     9    12    13   ar
    10    13    14   ar
    11    14    15    1
    12    14    16   ar
    13    16    17    1
    14    16    18   ar
    15     4     5    1
    16     5     6   ar
    17     6     7   ar
    18     7     8   ar
    19     8     9   ar
    20     9    10   ar
    21    10     1    1
    22    18    11   ar
    23    10     5   ar
@<TRIPOS>MOLECULE
*****
 21 23 0 0 0
SMALL
GASTEIGER

@<TRIPOS>ATOM
      1 C          65.3134   91.2902   14.3482 C.3     1  UNL1        0.0831
      2 C          64.4278   90.1369   14.7160 C.3     1  UNL1        0.0423
      3 C          63.4534   89.5905   13.7150 C.3     1  UNL1        0.0973
      4 N          63.3647   90.1974   12.3462 N.pl3   1  UNL1       -0.2870
      5 C          64.2504   91.3508   11.9783 C.ar    1  UNL1        0.0488
      6 C          64.1618   91.9577   10.6095 C.ar    1  UNL1        0.0146
      7 C          65.0475   93.1111   10.2417 C.ar    1  UNL1        0.0013
      8 C          66.0218   93.6575   11.2427 C.ar    1  UNL1       -0.0002
      9 C          66.1105   93.0505   12.6116 C.ar    1  UNL1       -0.0017
     10 C          65.2248   91.8972   12.9793 C.ar    1  UNL1        0.0059
     11 C          62.3904   89.6510   11.3452 C.ar    1  UNL1        0.0525
     12 C          61.1432   90.4171   11.0171 C.ar    1  UNL1        0.0157
     13 C          60.1689   89.8707   10.0160 C.ar    1  UNL1        0.0135
     14 C          60.4416   88.5582    9.3431 C.ar    1  UNL1        0.0683
     15 CL         59.4673   88.0118    8.3421 Cl      1  UNL1       -0.0814
     16 C          61.6888   87.7920    9.6712 C.ar    1  UNL1        0.0694
     17 CL         61.9616   86.4795    8.9982 Cl      1  UNL1       -0.0813
     18 C          62.6632   88.3384   10.6722 C.ar    1  UNL1        0.0271
     19 C          67.7541   91.5599   15.1969 C.3     1  UNL1        0.0899
     20 N          66.2878   91.8366   15.3493 N.3     1  UNL1       -0.2678
     21 C          65.7958   92.6598   16.5027 C.3     1  UNL1        0.0899
@<TRIPOS>BOND
     1    19    20    1
     2    20    21    1
     3     1    20    1
     4     1     2    1
     5     2     3    1
     6     3     4    1
     7     4    11    1
     8    11    12   ar
     9    12    13   ar
    10    13    14   ar
    11    14    15    1
    12    14    16   ar
    13    16    17    1
    14    16    18   ar
    15     4     5    1
    16     5     6   ar
    17     6     7   ar
    18     7     8   ar
    19     8     9   ar
    20     9    10   ar
    21    10     1    1
    22    18    11   ar
    23    10     5   ar
@<TRIPOS>MOLECULE
*****
 21 23 0 0 0
SMALL
GASTEIGER

@<TRIPOS>ATOM
      1 C          64.0237   90.0629   13.6094 C.3     1  UNL1        0.0831
      2 C          63.4068   90.8022   12.4592 C.3     1  UNL1        0.0423
      3 C          62.7075   90.0449   11.3695 C.3     1  UNL1        0.0973
      4 N          62.6251   88.5484   11.4299 N.pl3   1  UNL1       -0.2870
      5 C          63.2420   87.8091   12.5801 C.ar    1  UNL1        0.0488
      6 C          63.1595   86.3126   12.6406 C.ar    1  UNL1        0.0146
      7 C          63.7764   85.5734   13.7907 C.ar    1  UNL1        0.0013
      8 C          64.4757   86.3306   14.8805 C.ar    1  UNL1       -0.0002
      9 C          64.5581   87.8271   14.8201 C.ar    1  UNL1       -0.0017
     10 C          63.9413   88.5663   13.6699 C.ar    1  UNL1        0.0059
     11 C          61.9258   87.7912   10.3402 C.ar    1  UNL1        0.0525
     12 C          60.4785   88.0585   10.0508 C.ar    1  UNL1        0.0157
     13 C          59.7792   87.3013    8.9611 C.ar    1  UNL1        0.0135
     14 C          60.5272   86.2767    8.1606 C.ar    1  UNL1        0.0683
     15 CL         59.8279   85.5195    7.0709 Cl      1  UNL1       -0.0814
     16 C          61.9746   86.0094    8.4499 C.ar    1  UNL1        0.0694
     17 CL         62.7226   84.9848    7.6495 Cl      1  UNL1       -0.0813
     18 C          62.6739   86.7666    9.5397 C.ar    1  UNL1        0.0271
     19 C          64.0001   91.1383   15.9744 C.3     1  UNL1        0.0899
     20 N          64.7230   90.8201   14.6992 N.3     1  UNL1       -0.2678
     21 C          66.1453   91.2593   14.5137 C.3     1  UNL1        0.0899
@<TRIPOS>BOND
     1    19    20    1
     2    20    21    1
     3     1    20    1
     4     1     2    1
     5     2     3    1
     6     3     4    1
     7     4    11    1
     8    11    12   ar
     9    12    13   ar
    10    13    14   ar
    11    14    15    1
    12    14    16   ar
    13    16    17    1
    14    16    18   ar
    15     4     5    1
    16     5     6   ar
    17     6     7   ar
    18     7     8   ar
    19     8     9   ar
    20     9    10   ar
    21    10     1    1
    22    18    11   ar
    23    10     5   ar
@<TRIPOS>MOLECULE
*****
 21 23 0 0 0
SMALL
GASTEIGER

@<TRIPOS>ATOM
      1 C          63.4632   88.7551   12.6597 C.3     1  UNL1        0.0831
      2 C          64.0913   87.9712   13.7737 C.3     1  UNL1        0.0423
      3 C          63.8972   86.4857   13.8477 C.3     1  UNL1        0.0973
      4 N          63.0750   85.7840   12.8078 N.pl3   1  UNL1       -0.2870
      5 C          62.4468   86.5679   11.6937 C.ar    1  UNL1        0.0488
      6 C          61.6245   85.8662   10.6538 C.ar    1  UNL1        0.0146
      7 C          60.9964   86.6500    9.5399 C.ar    1  UNL1        0.0013
      8 C          61.1905   88.1356    9.4658 C.ar    1  UNL1       -0.0002
      9 C          62.0127   88.8373   10.5057 C.ar    1  UNL1       -0.0017
     10 C          62.6409   88.0534   11.6197 C.ar    1  UNL1        0.0059
     11 C          62.8808   84.2985   12.8818 C.ar    1  UNL1        0.0525
     12 C          62.4236   83.6647   14.1622 C.ar    1  UNL1        0.0157
     13 C          62.2295   82.1792   14.2362 C.ar    1  UNL1        0.0135
     14 C          62.4926   81.3274   13.0299 C.ar    1  UNL1        0.0683
     15 CL         62.2985   79.8418   13.1040 Cl      1  UNL1       -0.0814
     16 C          62.9499   81.9611   11.7495 C.ar    1  UNL1        0.0694
     17 CL         63.2131   81.1093   10.5433 Cl      1  UNL1       -0.0813
     18 C          63.1440   83.4466   11.6755 C.ar    1  UNL1        0.0271
     19 C          63.6204   90.9365   11.2574 C.3     1  UNL1        0.0899
     20 N          63.6573   90.2406   12.5857 N.3     1  UNL1       -0.2678
     21 C          63.8882   91.0303   13.8400 C.3     1  UNL1        0.0899
@<TRIPOS>BOND
     1    19    20    1
     2    20    21    1
     3     1    20    1
     4     1     2    1
     5     2     3    1
     6     3     4    1
     7     4    11    1
     8    11    12   ar
     9    12    13   ar
    10    13    14   ar
    11    14    15    1
    12    14    16   ar
    13    16    17    1
    14    16    18   ar
    15     4     5    1
    16     5     6   ar
    17     6     7   ar
    18     7     8   ar
    19     8     9   ar
    20     9    10   ar
    21    10     1    1
    22    18    11   ar
    23    10     5   ar
@<TRIPOS>MOLECULE
*****
 21 23 0 0 0
SMALL
GASTEIGER

@<TRIPOS>ATOM
      1 C          62.1872   88.7400   11.0711 C.3     1  UNL1        0.0831
      2 C          61.5549   87.6706   10.2306 C.3     1  UNL1        0.0423
      3 C          61.7054   86.2282   10.6139 C.3     1  UNL1        0.0973
      4 N          62.4882   85.8552   11.8378 N.pl3   1  UNL1       -0.2870
      5 C          63.1206   86.9246   12.6784 C.ar    1  UNL1        0.0488
      6 C          63.9034   86.5516   13.9023 C.ar    1  UNL1        0.0146
      7 C          64.5357   87.6209   14.7429 C.ar    1  UNL1        0.0013
      8 C          64.3852   89.0633   14.3596 C.ar    1  UNL1       -0.0002
      9 C          63.6024   89.4363   13.1357 C.ar    1  UNL1       -0.0017
     10 C          62.9701   88.3670   12.2951 C.ar    1  UNL1        0.0059
     11 C          62.6387   84.4129   12.2211 C.ar    1  UNL1        0.0525
     12 C          62.5410   84.0055   13.6614 C.ar    1  UNL1        0.0157
     13 C          62.6915   82.5631   14.0447 C.ar    1  UNL1        0.0135
     14 C          62.9398   81.5281   12.9878 C.ar    1  UNL1        0.0683
     15 CL         63.0903   80.0858   13.3711 Cl      1  UNL1       -0.0814
     16 C          63.0375   81.9355   11.5474 C.ar    1  UNL1        0.0694
     17 CL         63.2858   80.9006   10.4905 Cl      1  UNL1       -0.0813
     18 C          62.8870   83.3779   11.1641 C.ar    1  UNL1        0.0271
     19 C          63.2130   90.9423   10.1507 C.3     1  UNL1        0.0899
     20 N          62.0367   90.1823   10.6878 N.3     1  UNL1       -0.2678
     21 C          60.7097   90.8647   10.8416 C.3     1  UNL1        0.0899
@<TRIPOS>BOND
     1    19    20    1
     2    20    21    1
     3     1    20    1
     4     1     2    1
     5     2     3    1
     6     3     4    1
     7     4    11    1
     8    11    12   ar
     9    12    13   ar
    10    13    14   ar
    11    14    15    1
    12    14    16   ar
    13    16    17    1
    14    16    18   ar
    15     4     5    1
    16     5     6   ar
    17     6     7   ar
    18     7     8   ar
    19     8     9   ar
    20     9    10   ar
    21    10     1    1
    22    18    11   ar
    23    10     5   ar
@<TRIPOS>MOLECULE
*****
 21 23 0 0 0
SMALL
GASTEIGER

@<TRIPOS>ATOM
      1 C          61.7233   87.8366   10.1267 C.3     1  UNL1        0.0831
      2 C          61.7927   89.3297   10.0005 C.3     1  UNL1        0.0423
      3 C          62.5168   90.1372   11.0367 C.3     1  UNL1        0.0973
      4 N          63.1715   89.4516   12.1991 N.pl3   1  UNL1       -0.2870
      5 C          63.1022   87.9585   12.3253 C.ar    1  UNL1        0.0488
      6 C          63.7570   87.2729   13.4877 C.ar    1  UNL1        0.0146
      7 C          63.6877   85.7799   13.6139 C.ar    1  UNL1        0.0013
      8 C          62.9636   84.9724   12.5778 C.ar    1  UNL1       -0.0002
      9 C          62.3088   85.6579   11.4154 C.ar    1  UNL1       -0.0017
     10 C          62.3781   87.1510   11.2891 C.ar    1  UNL1        0.0059
     11 C          63.8956   90.2591   13.2352 C.ar    1  UNL1        0.0525
     12 C          63.4546   90.2092   14.6680 C.ar    1  UNL1        0.0157
     13 C          64.1787   91.0167   15.7042 C.ar    1  UNL1        0.0135
     14 C          65.3438   91.8740   15.3076 C.ar    1  UNL1        0.0683
     15 CL         66.0679   92.6815   16.3438 Cl      1  UNL1       -0.0814
     16 C          65.7849   91.9239   13.8747 C.ar    1  UNL1        0.0694
     17 CL         66.9501   92.7812   13.4781 Cl      1  UNL1       -0.0813
     18 C          65.0608   91.1164   12.8386 C.ar    1  UNL1        0.0271
     19 C          61.7419   86.0065    8.2828 C.3     1  UNL1        0.0899
     20 N          60.9992   87.0292    9.0905 N.3     1  UNL1       -0.2678
     21 C          59.5324   87.2444    8.8621 C.3     1  UNL1        0.0899
@<TRIPOS>BOND
     1    19    20    1
     2    20    21    1
     3     1    20    1
     4     1     2    1
     5     2     3    1
     6     3     4    1
     7     4    11    1
     8    11    12   ar
     9    12    13   ar
    10    13    14   ar
    11    14    15    1
    12    14    16   ar
    13    16    17    1
    14    16    18   ar
    15     4     5    1
    16     5     6   ar
    17     6     7   ar
    18     7     8   ar
    19     8     9   ar
    20     9    10   ar
    21    10     1    1
    22    18    11   ar
    23    10     5   ar
