@<TRIPOS>MOLECULE
*****
 29 31 0 0 0
SMALL
GASTEIGER

@<TRIPOS>ATOM
      1 C          63.4575   90.7100   11.7849 C.ar    1  UNL1        0.1534
      2 C          62.4067   90.7892   10.7174 C.ar    1  UNL1        0.0351
      3 C          61.4802   89.6317   10.4898 C.ar    1  UNL1        0.0722
      4 CL         60.4294   89.7108    9.4223 Cl      1  UNL1       -0.0809
      5 C          61.6045   88.3952   11.3297 C.ar    1  UNL1        0.0577
      6 C          62.6552   88.3160   12.3972 C.ar    1  UNL1        0.0462
      7 C          63.5818   89.4735   12.6248 C.ar    1  UNL1        0.1602
      8 F          64.6326   89.3944   13.6923 F       1  UNL1       -0.2027
      9 O          63.9838   91.9038   13.4576 O.2     1  UNL1       -0.1498
     10 S          64.3841   91.8675   12.0125 S.O2    1  UNL1        0.0772
     11 O          64.7845   91.8313   10.5674 O.2     1  UNL1       -0.1498
     12 N          65.3106   93.0249   12.2401 N.pl3   1  UNL1       -0.1936
     13 H          65.2495   93.8242   11.6686 H       1  UNL1        0.1758
     14 C          66.3304   92.9646   13.3386 C.ar    1  UNL1        0.1786
     15 N          66.4135   93.8899   14.5163 N.ar    1  UNL1       -0.2214
     16 C          67.5805   93.4655   15.3577 C.ar    1  UNL1        0.1079
     17 C          68.2186   92.2779   14.7001 C.ar    1  UNL1        0.0588
     18 S          67.4459   91.9683   13.4521 S.2     1  UNL1       -0.0497
     19 N          60.6779   87.2377   11.1021 N.pl3   1  UNL1       -0.3319
     20 H          59.8675   87.1402   11.6526 H       1  UNL1        0.1468
     21 C          60.9860   86.2287   10.0358 C.3     1  UNL1        0.0871
     22 C          62.4010   85.7854    9.8092 C.3     1  UNL1        0.0225
     23 C          62.9665   84.6460   10.6041 C.3     1  UNL1        0.0175
     24 C          63.7832   83.5884    9.9226 C.3     1  UNL1        0.0029
     25 C          64.3486   82.4490   10.7175 C.3     1  UNL1        0.0171
     26 C          64.0973   82.3671   12.1941 C.3     1  UNL1        0.0686
     27 N          63.2806   83.4247   12.8757 N.3     1  UNL1       -0.2975
     28 C          62.7151   84.5641   12.0806 C.3     1  UNL1        0.0686
     29 H          63.8732   83.8348   13.5975 H       1  UNL1        0.1232
@<TRIPOS>BOND
     1     9    10    2
     2    10    11    2
     3    10    12    1
     4    12    14    1
     5    14    15   ar
     6    15    16   ar
     7    16    17   ar
     8    17    18   ar
     9    10     1    1
    10     1     2   ar
    11     2     3   ar
    12     3     4    1
    13     3     5   ar
    14     5    19    1
    15    19    21    1
    16    21    22    1
    17    22    23    1
    18    23    24    1
    19    24    25    1
    20    25    26    1
    21    26    27    1
    22    27    28    1
    23     5     6   ar
    24     6     7   ar
    25     7     8    1
    26    18    14   ar
    27     7     1   ar
    28    28    23    1
    29    12    13    1
    30    19    20    1
    31    27    29    1
@<TRIPOS>MOLECULE
*****
 29 31 0 0 0
SMALL
GASTEIGER

@<TRIPOS>ATOM
      1 C          63.6731   85.9528   13.7456 C.ar    1  UNL1        0.1534
      2 C          63.0141   86.2457   12.4305 C.ar    1  UNL1        0.0351
      3 C          62.9342   87.6572   11.9295 C.ar    1  UNL1        0.0722
      4 CL         62.2751   87.9502   10.6142 Cl      1  UNL1       -0.0809
      5 C          63.5134   88.7760   12.7437 C.ar    1  UNL1        0.0577
      6 C          64.1725   88.4831   14.0589 C.ar    1  UNL1        0.0462
      7 C          64.2524   87.0715   14.5599 C.ar    1  UNL1        0.1602
      8 F          64.9115   86.7786   15.8752 F       1  UNL1       -0.2027
      9 O          65.2274   84.5268   13.9711 O.2     1  UNL1       -0.1498
     10 S          63.7530   84.5411   14.2467 S.O2    1  UNL1        0.0772
     11 O          62.2787   84.5555   14.5222 O.2     1  UNL1       -0.1498
     12 N          63.8330   83.1296   14.7477 N.pl3   1  UNL1       -0.1936
     13 H          64.2263   82.9421   15.6305 H       1  UNL1        0.1758
     14 C          63.3137   82.0036   13.9035 C.ar    1  UNL1        0.1786
     15 N          62.5071   80.8362   14.3901 N.ar    1  UNL1       -0.2214
     16 C          62.2047   79.9585   13.2119 C.ar    1  UNL1        0.1079
     17 C          62.8244   80.5833   11.9971 C.ar    1  UNL1        0.0588
     18 S          63.5098   81.8473   12.4246 S.2     1  UNL1       -0.0497
     19 N          63.4335   90.1876   12.2427 N.pl3   1  UNL1       -0.3319
     20 H          63.0232   90.3770   11.3681 H       1  UNL1        0.1468
     21 C          63.9788   91.3106   13.0743 C.3     1  UNL1        0.0871
     22 C          65.2642   91.9777   12.6835 C.3     1  UNL1        0.0225
     23 C          66.3571   92.1514   13.6961 C.3     1  UNL1        0.0175
     24 C          66.0175   92.5133   15.1116 C.3     1  UNL1        0.0029
     25 C          67.1104   92.6870   16.1241 C.3     1  UNL1        0.0171
     26 C          68.5430   92.4988   15.7212 C.3     1  UNL1        0.0686
     27 N          68.8826   92.1369   14.3057 N.3     1  UNL1       -0.2975
     28 C          67.7896   91.9632   13.2931 C.3     1  UNL1        0.0686
     29 H          69.3935   91.2547   14.3418 H       1  UNL1        0.1232
@<TRIPOS>BOND
     1     9    10    2
     2    10    11    2
     3    10    12    1
     4    12    14    1
     5    14    15   ar
     6    15    16   ar
     7    16    17   ar
     8    17    18   ar
     9    10     1    1
    10     1     2   ar
    11     2     3   ar
    12     3     4    1
    13     3     5   ar
    14     5    19    1
    15    19    21    1
    16    21    22    1
    17    22    23    1
    18    23    24    1
    19    24    25    1
    20    25    26    1
    21    26    27    1
    22    27    28    1
    23     5     6   ar
    24     6     7   ar
    25     7     8    1
    26    18    14   ar
    27     7     1   ar
    28    28    23    1
    29    12    13    1
    30    19    20    1
    31    27    29    1
@<TRIPOS>MOLECULE
*****
 29 31 0 0 0
SMALL
GASTEIGER

@<TRIPOS>ATOM
      1 C          64.8127   91.7422   11.9256 C.ar    1  UNL1        0.1534
      2 C          63.8453   91.5858   10.7899 C.ar    1  UNL1        0.0351
      3 C          62.8670   90.4489   10.7893 C.ar    1  UNL1        0.0722
      4 CL         61.8996   90.2925    9.6536 Cl      1  UNL1       -0.0809
      5 C          62.8560   89.4682   11.9243 C.ar    1  UNL1        0.0577
      6 C          63.8233   89.6246   13.0599 C.ar    1  UNL1        0.0462
      7 C          64.8016   90.7616   13.0606 C.ar    1  UNL1        0.1602
      8 F          65.7690   90.9180   14.1963 F       1  UNL1       -0.2027
      9 O          65.3475   93.2601   13.3076 O.2     1  UNL1       -0.1498
     10 S          65.7911   92.8792   11.9263 S.O2    1  UNL1        0.0772
     11 O          66.2347   92.4984   10.5450 O.2     1  UNL1       -0.1498
     12 N          66.7694   94.0162   11.9270 N.pl3   1  UNL1       -0.1936
     13 H          67.4097   94.1142   12.6685 H       1  UNL1        0.1758
     14 C          66.7724   95.0039   10.7981 C.ar    1  UNL1        0.1786
     15 N          67.7572   95.0478    9.6675 N.ar    1  UNL1       -0.2214
     16 C          67.3844   96.1921    8.7722 C.ar    1  UNL1        0.1079
     17 C          66.1692   96.8555    9.3495 C.ar    1  UNL1        0.0588
     18 S          65.7909   96.1211   10.6016 S.2     1  UNL1       -0.0497
     19 N          61.8775   88.3312   11.9236 N.pl3   1  UNL1       -0.3319
     20 H          61.1581   88.3005   12.5949 H       1  UNL1        0.1468
     21 C          61.9953   87.2410   10.9001 C.3     1  UNL1        0.0871
     22 C          61.5271   85.8534   11.2250 C.3     1  UNL1        0.0225
     23 C          62.5262   84.7537   11.4309 C.3     1  UNL1        0.0175
     24 C          63.2648   84.1820   10.2572 C.3     1  UNL1        0.0029
     25 C          64.2639   83.0823   10.4632 C.3     1  UNL1        0.0171
     26 C          64.5244   82.5543   11.8428 C.3     1  UNL1        0.0686
     27 N          63.7858   83.1260   13.0165 N.3     1  UNL1       -0.2975
     28 C          62.7867   84.2258   12.8106 C.3     1  UNL1        0.0686
     29 H          64.4901   83.4849   13.6612 H       1  UNL1        0.1232
@<TRIPOS>BOND
     1     9    10    2
     2    10    11    2
     3    10    12    1
     4    12    14    1
     5    14    15   ar
     6    15    16   ar
     7    16    17   ar
     8    17    18   ar
     9    10     1    1
    10     1     2   ar
    11     2     3   ar
    12     3     4    1
    13     3     5   ar
    14     5    19    1
    15    19    21    1
    16    21    22    1
    17    22    23    1
    18    23    24    1
    19    24    25    1
    20    25    26    1
    21    26    27    1
    22    27    28    1
    23     5     6   ar
    24     6     7   ar
    25     7     8    1
    26    18    14   ar
    27     7     1   ar
    28    28    23    1
    29    12    13    1
    30    19    20    1
    31    27    29    1
@<TRIPOS>MOLECULE
*****
 29 31 0 0 0
SMALL
GASTEIGER

@<TRIPOS>ATOM
      1 C          63.8525   86.6172   13.9892 C.ar    1  UNL1        0.1534
      2 C          64.2654   87.7490   14.8828 C.ar    1  UNL1        0.0351
      3 C          64.0811   89.1672   14.4306 C.ar    1  UNL1        0.0722
      4 CL         64.4939   90.2991   15.3242 Cl      1  UNL1       -0.0809
      5 C          63.4839   89.4537   13.0847 C.ar    1  UNL1        0.0577
      6 C          63.0711   88.3219   12.1911 C.ar    1  UNL1        0.0462
      7 C          63.2554   86.9037   12.6434 C.ar    1  UNL1        0.1602
      8 F          62.8425   85.7718   11.7497 F       1  UNL1       -0.2027
      9 O          62.5506   85.0493   14.5779 O.2     1  UNL1       -0.1498
     10 S          64.0368   85.1989   14.4415 S.O2    1  UNL1        0.0772
     11 O          65.5230   85.3485   14.3051 O.2     1  UNL1       -0.1498
     12 N          64.2210   83.7806   14.8937 N.pl3   1  UNL1       -0.1936
     13 H          64.7389   83.5870   15.7082 H       1  UNL1        0.1758
     14 C          63.6161   82.6573   14.1048 C.ar    1  UNL1        0.1786
     15 N          62.6154   81.6621   14.6127 N.ar    1  UNL1       -0.2214
     16 C          62.2866   80.7217   13.4913 C.ar    1  UNL1        0.1079
     17 C          63.0842   81.1357   12.2902 C.ar    1  UNL1        0.0588
     18 S          63.9059   82.3321   12.6694 S.2     1  UNL1       -0.0497
     19 N          63.2997   90.8721   12.6325 N.pl3   1  UNL1       -0.3319
     20 H          62.5346   91.3978   12.9604 H       1  UNL1        0.1468
     21 C          64.2810   91.4893   11.6807 C.3     1  UNL1        0.0871
     22 C          65.3419   92.4171   12.1941 C.3     1  UNL1        0.0225
     23 C          66.2224   93.1561   11.2305 C.3     1  UNL1        0.0175
     24 C          67.0774   92.3953   10.2609 C.3     1  UNL1        0.0029
     25 C          67.9579   93.1343    9.2973 C.3     1  UNL1        0.0171
     26 C          67.9834   94.6341    9.3033 C.3     1  UNL1        0.0686
     27 N          67.1284   95.3949   10.2729 N.3     1  UNL1       -0.2975
     28 C          66.2479   94.6558   11.2366 C.3     1  UNL1        0.0686
     29 H          66.5188   95.9965    9.7189 H       1  UNL1        0.1232
@<TRIPOS>BOND
     1     9    10    2
     2    10    11    2
     3    10    12    1
     4    12    14    1
     5    14    15   ar
     6    15    16   ar
     7    16    17   ar
     8    17    18   ar
     9    10     1    1
    10     1     2   ar
    11     2     3   ar
    12     3     4    1
    13     3     5   ar
    14     5    19    1
    15    19    21    1
    16    21    22    1
    17    22    23    1
    18    23    24    1
    19    24    25    1
    20    25    26    1
    21    26    27    1
    22    27    28    1
    23     5     6   ar
    24     6     7   ar
    25     7     8    1
    26    18    14   ar
    27     7     1   ar
    28    28    23    1
    29    12    13    1
    30    19    20    1
    31    27    29    1
@<TRIPOS>MOLECULE
*****
 29 31 0 0 0
SMALL
GASTEIGER

@<TRIPOS>ATOM
      1 C          63.0178   85.8445   12.5907 C.ar    1  UNL1        0.1534
      2 C          62.1488   85.7335   11.3731 C.ar    1  UNL1        0.0351
      3 C          61.7984   86.9622   10.5873 C.ar    1  UNL1        0.0722
      4 CL         60.9294   86.8512    9.3696 Cl      1  UNL1       -0.0809
      5 C          62.3169   88.3018   11.0191 C.ar    1  UNL1        0.0577
      6 C          63.1859   88.4128   12.2366 C.ar    1  UNL1        0.0462
      7 C          63.5363   87.1842   13.0224 C.ar    1  UNL1        0.1602
      8 F          64.4053   87.2951   14.2401 F       1  UNL1       -0.2027
      9 O          62.5387   85.1126   14.5232 O.2     1  UNL1       -0.1498
     10 S          63.3683   84.6158   13.3765 S.O2    1  UNL1        0.0772
     11 O          64.1979   84.1190   12.2299 O.2     1  UNL1       -0.1498
     12 N          63.7187   83.3872   14.1624 N.pl3   1  UNL1       -0.1936
     13 H          64.4741   83.4054   14.7936 H       1  UNL1        0.1758
     14 C          62.9183   82.1308   13.9866 C.ar    1  UNL1        0.1786
     15 N          61.5046   81.9154   14.4393 N.ar    1  UNL1       -0.2214
     16 C          61.1037   80.5207   14.0598 C.ar    1  UNL1        0.1079
     17 C          62.2697   79.8740   13.3725 C.ar    1  UNL1        0.0588
     18 S          63.3913   80.8692   13.3273 S.2     1  UNL1       -0.0497
     19 N          61.9664   89.5305   10.2332 N.pl3   1  UNL1       -0.3319
     20 H          61.5019   89.4464    9.3692 H       1  UNL1        0.1468
     21 C          62.3236   90.8873   10.7637 C.3     1  UNL1        0.0871
     22 C          63.5488   91.5910   10.2598 C.3     1  UNL1        0.0225
     23 C          64.6459   91.9621   11.2130 C.3     1  UNL1        0.0175
     24 C          64.5368   91.5927   12.6627 C.3     1  UNL1        0.0029
     25 C          65.6339   91.9638   13.6158 C.3     1  UNL1        0.0171
     26 C          66.8402   92.7043   13.1193 C.3     1  UNL1        0.0686
     27 N          66.9494   93.0737   11.6696 N.3     1  UNL1       -0.2975
     28 C          65.8522   92.7025   10.7164 C.3     1  UNL1        0.0686
     29 H          67.8034   92.6401   11.3188 H       1  UNL1        0.1232
@<TRIPOS>BOND
     1     9    10    2
     2    10    11    2
     3    10    12    1
     4    12    14    1
     5    14    15   ar
     6    15    16   ar
     7    16    17   ar
     8    17    18   ar
     9    10     1    1
    10     1     2   ar
    11     2     3   ar
    12     3     4    1
    13     3     5   ar
    14     5    19    1
    15    19    21    1
    16    21    22    1
    17    22    23    1
    18    23    24    1
    19    24    25    1
    20    25    26    1
    21    26    27    1
    22    27    28    1
    23     5     6   ar
    24     6     7   ar
    25     7     8    1
    26    18    14   ar
    27     7     1   ar
    28    28    23    1
    29    12    13    1
    30    19    20    1
    31    27    29    1
@<TRIPOS>MOLECULE
*****
 29 31 0 0 0
SMALL
GASTEIGER

@<TRIPOS>ATOM
      1 C          65.6046   92.2762   12.5359 C.ar    1  UNL1        0.1534
      2 C          64.3071   91.7934   11.9586 C.ar    1  UNL1        0.0351
      3 C          63.5261   90.7225   12.6608 C.ar    1  UNL1        0.0722
      4 CL         62.2285   90.2397   12.0835 Cl      1  UNL1       -0.0809
      5 C          64.0426   90.1344   13.9404 C.ar    1  UNL1        0.0577
      6 C          65.3401   90.6172   14.5178 C.ar    1  UNL1        0.0462
      7 C          66.1211   91.6881   13.8155 C.ar    1  UNL1        0.1602
      8 F          67.4187   92.1709   14.3929 F       1  UNL1       -0.2027
      9 O          66.6708   92.3998   10.7062 O.2     1  UNL1       -0.1498
     10 S          66.3857   93.3471   11.8337 S.O2    1  UNL1        0.0772
     11 O          66.1006   94.2945   12.9611 O.2     1  UNL1       -0.1498
     12 N          67.1667   94.4180   11.1314 N.pl3   1  UNL1       -0.1936
     13 H          68.1223   94.5427   11.3329 H       1  UNL1        0.1758
     14 C          66.4919   95.2989   10.1221 C.ar    1  UNL1        0.1786
     15 N          65.2493   96.1079   10.3487 N.ar    1  UNL1       -0.2214
     16 C          64.9306   96.8345    9.0757 C.ar    1  UNL1        0.1079
     17 C          65.9763   96.4745    8.0623 C.ar    1  UNL1        0.0588
     18 S          66.9413   95.5254    8.7091 S.2     1  UNL1       -0.0497
     19 N          63.2615   89.0635   14.6427 N.pl3   1  UNL1       -0.3319
     20 H          62.2790   89.1148   14.6796 H       1  UNL1        0.1468
     21 C          63.9773   87.9145   15.2887 C.3     1  UNL1        0.0871
     22 C          64.5529   86.8180   14.4421 C.3     1  UNL1        0.0225
     23 C          63.8700   85.4841   14.3766 C.3     1  UNL1        0.0175
     24 C          63.4522   84.9198   13.0511 C.3     1  UNL1        0.0029
     25 C          62.7693   83.5859   12.9855 C.3     1  UNL1        0.0171
     26 C          62.5041   82.8163   14.2455 C.3     1  UNL1        0.0686
     27 N          62.9219   83.3807   15.5710 N.3     1  UNL1       -0.2975
     28 C          63.6048   84.7146   15.6365 C.3     1  UNL1        0.0686
     29 H          63.5577   82.7033   15.9922 H       1  UNL1        0.1232
@<TRIPOS>BOND
     1     9    10    2
     2    10    11    2
     3    10    12    1
     4    12    14    1
     5    14    15   ar
     6    15    16   ar
     7    16    17   ar
     8    17    18   ar
     9    10     1    1
    10     1     2   ar
    11     2     3   ar
    12     3     4    1
    13     3     5   ar
    14     5    19    1
    15    19    21    1
    16    21    22    1
    17    22    23    1
    18    23    24    1
    19    24    25    1
    20    25    26    1
    21    26    27    1
    22    27    28    1
    23     5     6   ar
    24     6     7   ar
    25     7     8    1
    26    18    14   ar
    27     7     1   ar
    28    28    23    1
    29    12    13    1
    30    19    20    1
    31    27    29    1
@<TRIPOS>MOLECULE
*****
 29 31 0 0 0
SMALL
GASTEIGER

@<TRIPOS>ATOM
      1 C          63.5576   90.8433   11.7379 C.ar    1  UNL1        0.1534
      2 C          62.4678   90.8907   10.7083 C.ar    1  UNL1        0.0351
      3 C          61.5198   89.7370   10.5661 C.ar    1  UNL1        0.0722
      4 CL         60.4299   89.7843    9.5365 Cl      1  UNL1       -0.0809
      5 C          61.6616   88.5360   11.4535 C.ar    1  UNL1        0.0577
      6 C          62.7514   88.4886   12.4831 C.ar    1  UNL1        0.0462
      7 C          63.6994   89.6423   12.6252 C.ar    1  UNL1        0.1602
      8 F          64.7893   89.5950   13.6548 F       1  UNL1       -0.2027
      9 O          64.7303   91.9952   10.3971 O.2     1  UNL1       -0.1498
     10 S          64.5057   91.9970   11.8801 S.O2    1  UNL1        0.0772
     11 O          64.2811   91.9989   13.3632 O.2     1  UNL1       -0.1498
     12 N          65.4537   93.1507   12.0223 N.pl3   1  UNL1       -0.1936
     13 H          65.3813   93.7548   12.7963 H       1  UNL1        0.1758
     14 C          66.5122   93.3839   10.9853 C.ar    1  UNL1        0.1786
     15 N          67.6416   92.4541   10.6535 N.ar    1  UNL1       -0.2214
     16 C          68.4544   93.0834    9.5612 C.ar    1  UNL1        0.1079
     17 C          67.8274   94.4021    9.2177 C.ar    1  UNL1        0.0588
     18 S          66.6269   94.5878   10.0979 S.2     1  UNL1       -0.0497
     19 N          60.7135   87.3823   11.3113 N.pl3   1  UNL1       -0.3319
     20 H          59.9591   87.2851   11.9363 H       1  UNL1        0.1468
     21 C          60.9148   86.3766   10.2167 C.3     1  UNL1        0.0871
     22 C          62.2959   85.8921    9.8881 C.3     1  UNL1        0.0225
     23 C          62.8875   84.7416   10.6472 C.3     1  UNL1        0.0175
     24 C          63.7256   83.7232    9.9327 C.3     1  UNL1        0.0029
     25 C          64.3171   82.5727   10.6919 C.3     1  UNL1        0.0171
     26 C          64.0706   82.4405   12.1656 C.3     1  UNL1        0.0686
     27 N          63.2326   83.4589   12.8801 N.3     1  UNL1       -0.2975
     28 C          62.6410   84.6094   12.1209 C.3     1  UNL1        0.0686
     29 H          63.8176   83.8596   13.6133 H       1  UNL1        0.1232
@<TRIPOS>BOND
     1     9    10    2
     2    10    11    2
     3    10    12    1
     4    12    14    1
     5    14    15   ar
     6    15    16   ar
     7    16    17   ar
     8    17    18   ar
     9    10     1    1
    10     1     2   ar
    11     2     3   ar
    12     3     4    1
    13     3     5   ar
    14     5    19    1
    15    19    21    1
    16    21    22    1
    17    22    23    1
    18    23    24    1
    19    24    25    1
    20    25    26    1
    21    26    27    1
    22    27    28    1
    23     5     6   ar
    24     6     7   ar
    25     7     8    1
    26    18    14   ar
    27     7     1   ar
    28    28    23    1
    29    12    13    1
    30    19    20    1
    31    27    29    1
@<TRIPOS>MOLECULE
*****
 29 31 0 0 0
SMALL
GASTEIGER

@<TRIPOS>ATOM
      1 C          62.7515   89.8718   12.0001 C.ar    1  UNL1        0.1534
      2 C          63.3046   89.8810   13.3943 C.ar    1  UNL1        0.0351
      3 C          64.3664   90.8703   13.7734 C.ar    1  UNL1        0.0722
      4 CL         64.9196   90.8796   15.1677 Cl      1  UNL1       -0.0809
      5 C          64.8752   91.8505   12.7582 C.ar    1  UNL1        0.0577
      6 C          64.3221   91.8413   11.3640 C.ar    1  UNL1        0.0462
      7 C          63.2603   90.8519   10.9849 C.ar    1  UNL1        0.1602
      8 F          62.7071   90.8427    9.5906 F       1  UNL1       -0.2027
      9 O          62.7097   88.0731   10.8763 O.2     1  UNL1       -0.1498
     10 S          61.6897   88.8825   11.6209 S.O2    1  UNL1        0.0772
     11 O          60.6697   89.6918   12.3656 O.2     1  UNL1       -0.1498
     12 N          60.6279   87.8931   11.2418 N.pl3   1  UNL1       -0.1936
     13 H          60.2037   87.3367   11.9343 H       1  UNL1        0.1758
     14 C          60.2124   87.7516    9.8074 C.ar    1  UNL1        0.1786
     15 N          60.0402   86.4611    9.0625 N.ar    1  UNL1       -0.2214
     16 C          59.6175   86.7876    7.6609 C.ar    1  UNL1        0.1079
     17 C          59.5285   88.2801    7.5394 C.ar    1  UNL1        0.0588
     18 S          59.8961   88.8759    8.8661 S.2     1  UNL1       -0.0497
     19 N          65.9370   92.8398   13.1374 N.pl3   1  UNL1       -0.3319
     20 H          66.1796   92.9632   14.0835 H       1  UNL1        0.1468
     21 C          66.6293   93.6411   12.0750 C.3     1  UNL1        0.0871
     22 C          66.2080   95.0559   11.8085 C.3     1  UNL1        0.0225
     23 C          66.1809   95.5782   10.4027 C.3     1  UNL1        0.0175
     24 C          67.3520   95.3476    9.4942 C.3     1  UNL1        0.0029
     25 C          67.3249   95.8700    8.0884 C.3     1  UNL1        0.0171
     26 C          66.1267   96.6230    7.5910 C.3     1  UNL1        0.0686
     27 N          64.9556   96.8536    8.4995 N.3     1  UNL1       -0.2975
     28 C          64.9827   96.3312    9.9054 C.3     1  UNL1        0.0686
     29 H          64.1438   96.4350    8.0454 H       1  UNL1        0.1232
@<TRIPOS>BOND
     1     9    10    2
     2    10    11    2
     3    10    12    1
     4    12    14    1
     5    14    15   ar
     6    15    16   ar
     7    16    17   ar
     8    17    18   ar
     9    10     1    1
    10     1     2   ar
    11     2     3   ar
    12     3     4    1
    13     3     5   ar
    14     5    19    1
    15    19    21    1
    16    21    22    1
    17    22    23    1
    18    23    24    1
    19    24    25    1
    20    25    26    1
    21    26    27    1
    22    27    28    1
    23     5     6   ar
    24     6     7   ar
    25     7     8    1
    26    18    14   ar
    27     7     1   ar
    28    28    23    1
    29    12    13    1
    30    19    20    1
    31    27    29    1
@<TRIPOS>MOLECULE
*****
 29 31 0 0 0
SMALL
GASTEIGER

@<TRIPOS>ATOM
      1 C          63.7910   86.6212   13.8465 C.ar    1  UNL1        0.1534
      2 C          64.2721   87.6741   14.8003 C.ar    1  UNL1        0.0351
      3 C          64.1753   89.1239   14.4281 C.ar    1  UNL1        0.0722
      4 CL         64.6565   90.1769   15.3820 Cl      1  UNL1       -0.0809
      5 C          63.5974   89.5208   13.1021 C.ar    1  UNL1        0.0577
      6 C          63.1162   88.4680   12.1482 C.ar    1  UNL1        0.0462
      7 C          63.2130   87.0181   12.5204 C.ar    1  UNL1        0.1602
      8 F          62.7319   85.9651   11.5665 F       1  UNL1       -0.2027
      9 O          62.3915   85.0675   14.2033 O.2     1  UNL1       -0.1498
     10 S          63.8878   85.1712   14.2186 S.O2    1  UNL1        0.0772
     11 O          65.3841   85.2750   14.2339 O.2     1  UNL1       -0.1498
     12 N          63.9845   83.7214   14.5908 N.pl3   1  UNL1       -0.1936
     13 H          64.3304   83.4623   15.4754 H       1  UNL1        0.1758
     14 C          63.5543   82.6663   13.6151 C.ar    1  UNL1        0.1786
     15 N          63.6631   82.7496   12.1214 N.ar    1  UNL1       -0.2214
     16 C          63.1158   81.4775   11.5451 C.ar    1  UNL1        0.1079
     17 C          62.6688   80.6079   12.6827 C.ar    1  UNL1        0.0588
     18 S          62.9398   81.3427   13.9621 S.2     1  UNL1       -0.0497
     19 N          63.5006   90.9708   12.7299 N.pl3   1  UNL1       -0.3319
     20 H          62.7928   91.5329   13.1202 H       1  UNL1        0.1468
     21 C          64.4821   91.5641   11.7632 C.3     1  UNL1        0.0871
     22 C          65.2825   92.7714   12.1530 C.3     1  UNL1        0.0225
     23 C          66.3883   92.6454   13.1586 C.3     1  UNL1        0.0175
     24 C          66.2226   93.2245   14.5323 C.3     1  UNL1        0.0029
     25 C          67.3284   93.0985   15.5378 C.3     1  UNL1        0.0171
     26 C          68.6002   92.3934   15.1696 C.3     1  UNL1        0.0686
     27 N          68.7660   91.8142   13.7959 N.3     1  UNL1       -0.2975
     28 C          67.6600   91.9403   12.7904 C.3     1  UNL1        0.0686
     29 H          68.9424   90.8168   13.9162 H       1  UNL1        0.1232
@<TRIPOS>BOND
     1     9    10    2
     2    10    11    2
     3    10    12    1
     4    12    14    1
     5    14    15   ar
     6    15    16   ar
     7    16    17   ar
     8    17    18   ar
     9    10     1    1
    10     1     2   ar
    11     2     3   ar
    12     3     4    1
    13     3     5   ar
    14     5    19    1
    15    19    21    1
    16    21    22    1
    17    22    23    1
    18    23    24    1
    19    24    25    1
    20    25    26    1
    21    26    27    1
    22    27    28    1
    23     5     6   ar
    24     6     7   ar
    25     7     8    1
    26    18    14   ar
    27     7     1   ar
    28    28    23    1
    29    12    13    1
    30    19    20    1
    31    27    29    1
