@<TRIPOS>MOLECULE
*****
 40 44 0 0 0
SMALL
GASTEIGER

@<TRIPOS>ATOM
      1 C          58.8927   91.3889    4.8981 C.ar    1  UNL1       -0.0025
      2 C          57.9232   90.5751    5.7028 C.ar    1  UNL1       -0.0014
      3 C          58.4292   89.5936    6.7180 C.ar    1  UNL1        0.0142
      4 C          59.9049   89.4259    6.9285 C.ar    1  UNL1        0.0478
      5 C          60.8744   90.2397    6.1237 C.ar    1  UNL1        0.0142
      6 C          60.3684   91.2211    5.1086 C.ar    1  UNL1       -0.0014
      7 N          60.4109   88.4444    7.9437 N.pl3   1  UNL1       -0.3075
      8 C          60.2148   86.9731    7.7271 C.3     1  UNL1        0.0911
      9 C          60.7208   85.9916    8.7423 C.3     1  UNL1        0.0258
     10 C          61.4229   86.4814    9.9740 C.3     1  UNL1        0.0257
     11 C          61.6190   87.9526   10.1906 C.3     1  UNL1        0.0258
     12 C          61.1130   88.9341    9.1754 C.3     1  UNL1        0.0911
     13 C          61.9289   85.4999   10.9892 C.ar    1  UNL1       -0.0222
     14 C          62.3195   84.1154   10.5642 C.ar    1  UNL1       -0.0012
     15 C          62.8255   83.1339   11.5794 C.ar    1  UNL1        0.0369
     16 C          62.9410   83.5369   13.0197 C.ar    1  UNL1        0.1468
     17 C          62.5504   84.9214   13.4446 C.ar    1  UNL1        0.0369
     18 C          62.0444   85.9029   12.4294 C.ar    1  UNL1       -0.0012
     19 O          63.4470   82.5554   14.0348 O.3     1  UNL1       -0.4045
     20 C          62.9685   81.1341   14.0073 C.3     1  UNL1        0.5753
     21 F          62.4900   79.7127   13.9797 F       1  UNL1       -0.1328
     22 F          64.2892   80.7004   13.4436 F       1  UNL1       -0.1328
     23 F          61.6478   81.5677   14.5709 F       1  UNL1       -0.1328
     24 C          58.3867   92.3704    3.8829 C.3     1  UNL1        0.1166
     25 C          59.8640   93.5279    2.0863 C.2     1  UNL1        0.2635
     26 O          60.1633   94.6392    3.0485 O.2     1  UNL1       -0.2685
     27 N          58.9757   92.3936    2.5036 N.am    1  UNL1       -0.2957
     28 H          58.7793   91.6643    1.8721 H       1  UNL1        0.1501
     29 C          61.9135   93.4900    0.3708 C.ar    1  UNL1        0.0811
     30 N          62.0480   93.5407   -1.1223 N.ar    1  UNL1       -0.2306
     31 C          60.6706   93.6331   -1.7089 C.ar    1  UNL1        0.1483
     32 C          60.1866   93.7121   -3.1264 C.ar    1  UNL1        0.0488
     33 C          58.7168   93.7977   -3.4134 C.ar    1  UNL1        0.0622
     34 CL         58.2328   93.8768   -4.8310 Cl      1  UNL1       -0.0821
     35 C          57.7310   93.8041   -2.2829 C.ar    1  UNL1        0.0305
     36 C          58.2150   93.7251   -0.8653 C.ar    1  UNL1        0.0824
     37 N          59.6848   93.6395   -0.5783 N.ar    1  UNL1       -0.2853
     38 C          60.4530   93.5511    0.7070 C.ar    1  UNL1        0.1326
     39 C          63.1426   92.2090    2.2678 C.3     1  UNL1        0.0067
     40 C          63.0416   93.3950    1.3550 C.3     1  UNL1        0.0475
@<TRIPOS>BOND
     1    39    40    1
     2    40    29    1
     3    29    30   ar
     4    30    31   ar
     5    31    32   ar
     6    32    33   ar
     7    33    34    1
     8    33    35   ar
     9    35    36   ar
    10    36    37   ar
    11    37    38   ar
    12    38    25    1
    13    25    26    2
    14    25    27   am
    15    27    24    1
    16    24     1    1
    17     1     2   ar
    18     2     3   ar
    19     3     4   ar
    20     4     7    1
    21     7     8    1
    22     8     9    1
    23     9    10    1
    24    10    13    1
    25    13    14   ar
    26    14    15   ar
    27    15    16   ar
    28    16    19    1
    29    19    20    1
    30    20    21    1
    31    20    22    1
    32    20    23    1
    33    16    17   ar
    34    17    18   ar
    35    10    11    1
    36    11    12    1
    37     4     5   ar
    38     5     6   ar
    39    38    29   ar
    40     6     1   ar
    41    37    31   ar
    42    12     7    1
    43    18    13   ar
    44    27    28    1
@<TRIPOS>MOLECULE
*****
 40 44 0 0 0
SMALL
GASTEIGER

@<TRIPOS>ATOM
      1 C          58.9590   91.4879    4.7579 C.ar    1  UNL1       -0.0025
      2 C          57.9781   90.7418    5.6128 C.ar    1  UNL1       -0.0014
      3 C          58.4683   89.7503    6.6261 C.ar    1  UNL1        0.0142
      4 C          59.9396   89.5049    6.7844 C.ar    1  UNL1        0.0478
      5 C          60.9206   90.2510    5.9294 C.ar    1  UNL1        0.0142
      6 C          60.4303   91.2424    4.9162 C.ar    1  UNL1       -0.0014
      7 N          60.4298   88.5134    7.7976 N.pl3   1  UNL1       -0.3075
      8 C          61.1255   88.9904    9.0380 C.3     1  UNL1        0.0911
      9 C          61.6157   87.9989   10.0512 C.3     1  UNL1        0.0258
     10 C          61.4103   86.5305    9.8241 C.3     1  UNL1        0.0257
     11 C          60.7147   86.0536    8.5837 C.3     1  UNL1        0.0258
     12 C          60.2244   87.0450    7.5705 C.3     1  UNL1        0.0911
     13 C          61.9006   85.5391   10.8373 C.ar    1  UNL1       -0.0222
     14 C          62.4039   84.1981   10.3920 C.ar    1  UNL1       -0.0012
     15 C          62.8942   83.2066   11.4052 C.ar    1  UNL1        0.0369
     16 C          62.8811   83.5561   12.8639 C.ar    1  UNL1        0.1468
     17 C          62.3777   84.8971   13.3092 C.ar    1  UNL1        0.0369
     18 C          61.8875   85.8886   12.2960 C.ar    1  UNL1       -0.0012
     19 O          63.3713   82.5647   13.8771 O.3     1  UNL1       -0.4045
     20 C          62.8840   81.1467   13.8356 C.3     1  UNL1        0.5753
     21 F          62.3967   79.7287   13.7941 F       1  UNL1       -0.1328
     22 F          64.3010   80.6622   13.7494 F       1  UNL1       -0.1328
     23 F          61.4670   81.6311   13.9218 F       1  UNL1       -0.1328
     24 C          58.4688   92.4793    3.7446 C.3     1  UNL1        0.1166
     25 C          59.8914   93.7969    2.0155 C.2     1  UNL1        0.2635
     26 O          59.9975   94.9437    2.9767 O.2     1  UNL1       -0.2685
     27 N          59.1270   92.5648    2.3995 N.am    1  UNL1       -0.2957
     28 H          59.0574   91.8122    1.7687 H       1  UNL1        0.1501
     29 C          60.0140   93.3155   -0.6110 C.ar    1  UNL1        0.0811
     30 N          60.9924   93.6326   -1.7029 N.ar    1  UNL1       -0.2306
     31 C          62.1327   94.3954   -1.0964 C.ar    1  UNL1        0.1483
     32 C          63.3849   94.9694   -1.6902 C.ar    1  UNL1        0.0488
     33 C          64.3634   95.6977   -0.8172 C.ar    1  UNL1        0.0622
     34 CL         65.6156   96.2717   -1.4110 Cl      1  UNL1       -0.0821
     35 C          64.0897   95.8521    0.6495 C.ar    1  UNL1        0.0305
     36 C          62.8375   95.2781    1.2433 C.ar    1  UNL1        0.0824
     37 N          61.8590   94.5498    0.3704 N.ar    1  UNL1       -0.2853
     38 C          60.5496   93.8824    0.6703 C.ar    1  UNL1        0.1326
     39 C          57.4267   93.3092   -0.8472 C.3     1  UNL1        0.0067
     40 C          58.7261   92.5637   -0.7722 C.3     1  UNL1        0.0475
@<TRIPOS>BOND
     1    39    40    1
     2    40    29    1
     3    29    30   ar
     4    30    31   ar
     5    31    32   ar
     6    32    33   ar
     7    33    34    1
     8    33    35   ar
     9    35    36   ar
    10    36    37   ar
    11    37    38   ar
    12    38    25    1
    13    25    26    2
    14    25    27   am
    15    27    24    1
    16    24     1    1
    17     1     2   ar
    18     2     3   ar
    19     3     4   ar
    20     4     7    1
    21     7     8    1
    22     8     9    1
    23     9    10    1
    24    10    13    1
    25    13    14   ar
    26    14    15   ar
    27    15    16   ar
    28    16    19    1
    29    19    20    1
    30    20    21    1
    31    20    22    1
    32    20    23    1
    33    16    17   ar
    34    17    18   ar
    35    10    11    1
    36    11    12    1
    37     4     5   ar
    38     5     6   ar
    39    38    29   ar
    40     6     1   ar
    41    37    31   ar
    42    12     7    1
    43    18    13   ar
    44    27    28    1
@<TRIPOS>MOLECULE
*****
 40 44 0 0 0
SMALL
GASTEIGER

@<TRIPOS>ATOM
      1 C          59.8312   87.7283    8.9882 C.ar    1  UNL1       -0.0025
      2 C          59.4159   87.2596    7.6252 C.ar    1  UNL1       -0.0014
      3 C          59.4033   88.2202    6.4732 C.ar    1  UNL1        0.0142
      4 C          59.8059   89.6497    6.6843 C.ar    1  UNL1        0.0478
      5 C          60.2211   90.1184    8.0473 C.ar    1  UNL1        0.0142
      6 C          60.2338   89.1578    9.1992 C.ar    1  UNL1       -0.0014
      7 N          59.7933   90.6103    5.5323 N.pl3   1  UNL1       -0.3075
      8 C          61.0733   90.9589    4.8324 C.3     1  UNL1        0.0911
      9 C          61.0607   91.9195    3.6805 C.3     1  UNL1        0.0258
     10 C          59.7680   92.5316    3.2284 C.3     1  UNL1        0.0257
     11 C          58.4879   92.1830    3.9283 C.3     1  UNL1        0.0258
     12 C          58.5006   91.2224    5.0803 C.3     1  UNL1        0.0911
     13 C          59.7554   93.4922    2.0765 C.ar    1  UNL1       -0.0222
     14 C          60.3909   94.8433    2.2195 C.ar    1  UNL1       -0.0012
     15 C          60.3783   95.8040    1.0676 C.ar    1  UNL1        0.0369
     16 C          59.7301   95.4135   -0.2275 C.ar    1  UNL1        0.1468
     17 C          59.0945   94.0624   -0.3706 C.ar    1  UNL1        0.0369
     18 C          59.1071   93.1018    0.7813 C.ar    1  UNL1       -0.0012
     19 O          59.7174   96.3741   -1.3795 O.3     1  UNL1       -0.4045
     20 C          59.5192   95.8667   -2.7770 C.3     1  UNL1        0.5753
     21 F          59.3210   95.3593   -4.1746 F       1  UNL1       -0.1328
     22 F          58.0779   96.2783   -2.7221 F       1  UNL1       -0.1328
     23 F          60.9606   95.4551   -2.8320 F       1  UNL1       -0.1328
     24 C          59.8438   86.7677   10.1401 C.3     1  UNL1        0.1166
     25 C          62.1305   86.5742   11.3581 C.2     1  UNL1        0.2635
     26 O          62.6934   85.8307   10.1831 O.2     1  UNL1       -0.2685
     27 N          60.7057   87.0426   11.3366 N.am    1  UNL1       -0.2957
     28 H          60.3363   87.5306   12.1077 H       1  UNL1        0.1501
     29 C          63.5219   85.8247   13.5139 C.ar    1  UNL1        0.0811
     30 N          64.3329   86.5393   14.5539 N.ar    1  UNL1       -0.2306
     31 C          64.3047   88.0052   14.2374 C.ar    1  UNL1        0.1483
     32 C          64.9263   89.1904   14.9147 C.ar    1  UNL1        0.0488
     33 C          64.7194   90.5672   14.3564 C.ar    1  UNL1        0.0622
     34 CL         65.3411   91.7525   15.0337 Cl      1  UNL1       -0.0821
     35 C          63.8909   90.7587   13.1207 C.ar    1  UNL1        0.0305
     36 C          63.2693   89.5734   12.4434 C.ar    1  UNL1        0.0824
     37 N          63.4762   88.1967   13.0017 N.ar    1  UNL1       -0.2853
     38 C          62.9924   86.8491   12.5546 C.ar    1  UNL1        0.1326
     39 C          64.1291   83.4895   12.5507 C.3     1  UNL1        0.0067
     40 C          63.2825   84.3456   13.4452 C.3     1  UNL1        0.0475
@<TRIPOS>BOND
     1    39    40    1
     2    40    29    1
     3    29    30   ar
     4    30    31   ar
     5    31    32   ar
     6    32    33   ar
     7    33    34    1
     8    33    35   ar
     9    35    36   ar
    10    36    37   ar
    11    37    38   ar
    12    38    25    1
    13    25    26    2
    14    25    27   am
    15    27    24    1
    16    24     1    1
    17     1     2   ar
    18     2     3   ar
    19     3     4   ar
    20     4     7    1
    21     7     8    1
    22     8     9    1
    23     9    10    1
    24    10    13    1
    25    13    14   ar
    26    14    15   ar
    27    15    16   ar
    28    16    19    1
    29    19    20    1
    30    20    21    1
    31    20    22    1
    32    20    23    1
    33    16    17   ar
    34    17    18   ar
    35    10    11    1
    36    11    12    1
    37     4     5   ar
    38     5     6   ar
    39    38    29   ar
    40     6     1   ar
    41    37    31   ar
    42    12     7    1
    43    18    13   ar
    44    27    28    1
@<TRIPOS>MOLECULE
*****
 40 44 0 0 0
SMALL
GASTEIGER

@<TRIPOS>ATOM
      1 C          59.8431   88.2013    9.1750 C.ar    1  UNL1       -0.0025
      2 C          59.1967   87.7084    7.9144 C.ar    1  UNL1       -0.0014
      3 C          59.1733   88.5794    6.6934 C.ar    1  UNL1        0.0142
      4 C          59.7962   89.9433    6.7330 C.ar    1  UNL1        0.0478
      5 C          60.4426   90.4362    7.9936 C.ar    1  UNL1        0.0142
      6 C          60.4661   89.5653    9.2146 C.ar    1  UNL1       -0.0014
      7 N          59.7728   90.8143    5.5120 N.pl3   1  UNL1       -0.3075
      8 C          58.4725   91.3712    5.0129 C.3     1  UNL1        0.0911
      9 C          58.4490   92.2422    3.7919 C.3     1  UNL1        0.0258
     10 C          59.7258   92.5563    3.0700 C.3     1  UNL1        0.0257
     11 C          61.0261   91.9994    3.5691 C.3     1  UNL1        0.0258
     12 C          61.0496   91.1284    4.7901 C.3     1  UNL1        0.0911
     13 C          59.7024   93.4272    1.8490 C.ar    1  UNL1       -0.0222
     14 C          60.2545   94.8205    1.9108 C.ar    1  UNL1       -0.0012
     15 C          60.2310   95.6915    0.6899 C.ar    1  UNL1        0.0369
     16 C          59.6554   95.1691   -0.5931 C.ar    1  UNL1        0.1468
     17 C          59.1033   93.7759   -0.6549 C.ar    1  UNL1        0.0369
     18 C          59.1268   92.9049    0.5661 C.ar    1  UNL1       -0.0012
     19 O          59.6320   96.0401   -1.8141 O.3     1  UNL1       -0.4045
     20 C          59.3790   95.4342   -3.1627 C.3     1  UNL1        0.5753
     21 F          59.1261   94.8284   -4.5114 F       1  UNL1       -0.1328
     22 F          60.8227   95.0380   -3.2555 F       1  UNL1       -0.1328
     23 F          57.9353   95.8305   -3.0700 F       1  UNL1       -0.1328
     24 C          59.8666   87.3304   10.3960 C.3     1  UNL1        0.1166
     25 C          62.0469   85.9919   10.8487 C.2     1  UNL1        0.2635
     26 O          62.7143   87.2440   11.3356 O.2     1  UNL1       -0.2685
     27 N          60.6230   86.0352   10.3790 N.am    1  UNL1       -0.2957
     28 H          60.1850   85.2134   10.0595 H       1  UNL1        0.1501
     29 C          63.5565   84.1309    9.6644 C.ar    1  UNL1        0.0811
     30 N          64.1580   82.8245   10.0903 N.ar    1  UNL1       -0.2306
     31 C          63.7767   82.5829   11.5208 C.ar    1  UNL1        0.1483
     32 C          64.0837   81.4588   12.4653 C.ar    1  UNL1        0.0488
     33 C          63.5534   81.4919   13.8680 C.ar    1  UNL1        0.0622
     34 CL         63.8604   80.3678   14.8126 Cl      1  UNL1       -0.0821
     35 C          62.7161   82.6491   14.3262 C.ar    1  UNL1        0.0305
     36 C          62.4091   83.7732   13.3817 C.ar    1  UNL1        0.0824
     37 N          62.9394   83.7401   11.9790 N.ar    1  UNL1       -0.2853
     38 C          62.8033   84.6968   10.8317 C.ar    1  UNL1        0.1326
     39 C          62.4732   84.9289    7.4419 C.3     1  UNL1        0.0067
     40 C          63.6854   84.7608    8.3092 C.3     1  UNL1        0.0475
@<TRIPOS>BOND
     1    39    40    1
     2    40    29    1
     3    29    30   ar
     4    30    31   ar
     5    31    32   ar
     6    32    33   ar
     7    33    34    1
     8    33    35   ar
     9    35    36   ar
    10    36    37   ar
    11    37    38   ar
    12    38    25    1
    13    25    26    2
    14    25    27   am
    15    27    24    1
    16    24     1    1
    17     1     2   ar
    18     2     3   ar
    19     3     4   ar
    20     4     7    1
    21     7     8    1
    22     8     9    1
    23     9    10    1
    24    10    13    1
    25    13    14   ar
    26    14    15   ar
    27    15    16   ar
    28    16    19    1
    29    19    20    1
    30    20    21    1
    31    20    22    1
    32    20    23    1
    33    16    17   ar
    34    17    18   ar
    35    10    11    1
    36    11    12    1
    37     4     5   ar
    38     5     6   ar
    39    38    29   ar
    40     6     1   ar
    41    37    31   ar
    42    12     7    1
    43    18    13   ar
    44    27    28    1
@<TRIPOS>MOLECULE
*****
 40 44 0 0 0
SMALL
GASTEIGER

@<TRIPOS>ATOM
      1 C          59.5293   88.0719    8.5188 C.ar    1  UNL1       -0.0025
      2 C          59.1049   87.6948    7.1305 C.ar    1  UNL1       -0.0014
      3 C          59.2977   88.6603    5.9989 C.ar    1  UNL1        0.0142
      4 C          59.9149   90.0031    6.2556 C.ar    1  UNL1        0.0478
      5 C          60.3394   90.3802    7.6440 C.ar    1  UNL1        0.0142
      6 C          60.1465   89.4147    8.7756 C.ar    1  UNL1       -0.0014
      7 N          60.1078   90.9687    5.1241 N.pl3   1  UNL1       -0.3075
      8 C          61.4467   91.0859    4.4581 C.3     1  UNL1        0.0911
      9 C          61.6395   92.0515    3.3265 C.3     1  UNL1        0.0258
     10 C          60.4934   92.8998    2.8609 C.3     1  UNL1        0.0257
     11 C          59.1544   92.7825    3.5268 C.3     1  UNL1        0.0258
     12 C          58.9616   91.8170    4.6584 C.3     1  UNL1        0.0911
     13 C          60.6862   93.8654    1.7293 C.ar    1  UNL1       -0.0222
     14 C          61.1985   93.3780    0.4065 C.ar    1  UNL1       -0.0012
     15 C          61.3913   94.3435   -0.7251 C.ar    1  UNL1        0.0369
     16 C          61.0718   95.7966   -0.5339 C.ar    1  UNL1        0.1468
     17 C          60.5594   96.2840    0.7889 C.ar    1  UNL1        0.0369
     18 C          60.3666   95.3184    1.9205 C.ar    1  UNL1       -0.0012
     19 O          61.2646   96.7621   -1.6655 O.3     1  UNL1       -0.4045
     20 C          61.6249   96.2555   -3.0306 C.3     1  UNL1        0.5753
     21 F          61.9851   95.7488   -4.3956 F       1  UNL1       -0.1328
     22 F          60.1706   96.0596   -3.3417 F       1  UNL1       -0.1328
     23 F          63.0791   96.4513   -2.7194 F       1  UNL1       -0.1328
     24 C          59.3365   87.1063    9.6504 C.3     1  UNL1        0.1166
     25 C          61.6825   86.7602   10.7118 C.2     1  UNL1        0.2635
     26 O          62.2159   86.3075    9.3849 O.2     1  UNL1       -0.2685
     27 N          60.2428   87.1596   10.8445 N.am    1  UNL1       -0.2957
     28 H          59.8926   87.4567   11.7153 H       1  UNL1        0.1501
     29 C          63.2118   88.0488   12.4854 C.ar    1  UNL1        0.0811
     30 N          64.0392   87.6395   13.6677 N.ar    1  UNL1       -0.2306
     31 C          63.9275   86.1513   13.8189 C.ar    1  UNL1        0.1483
     32 C          64.5263   85.1951   14.8074 C.ar    1  UNL1        0.0488
     33 C          64.2285   83.7284   14.7070 C.ar    1  UNL1        0.0622
     34 CL         64.8273   82.7722   15.6955 Cl      1  UNL1       -0.0821
     35 C          63.3321   83.2179   13.6181 C.ar    1  UNL1        0.0305
     36 C          62.7333   84.1741   12.6296 C.ar    1  UNL1        0.0824
     37 N          63.0311   85.6408   12.7300 N.ar    1  UNL1       -0.2853
     38 C          62.5888   86.8135   11.9059 C.ar    1  UNL1        0.1326
     39 C          63.6596   90.5983   12.7072 C.3     1  UNL1        0.0067
     40 C          63.0381   89.4477   11.9726 C.3     1  UNL1        0.0475
@<TRIPOS>BOND
     1    39    40    1
     2    40    29    1
     3    29    30   ar
     4    30    31   ar
     5    31    32   ar
     6    32    33   ar
     7    33    34    1
     8    33    35   ar
     9    35    36   ar
    10    36    37   ar
    11    37    38   ar
    12    38    25    1
    13    25    26    2
    14    25    27   am
    15    27    24    1
    16    24     1    1
    17     1     2   ar
    18     2     3   ar
    19     3     4   ar
    20     4     7    1
    21     7     8    1
    22     8     9    1
    23     9    10    1
    24    10    13    1
    25    13    14   ar
    26    14    15   ar
    27    15    16   ar
    28    16    19    1
    29    19    20    1
    30    20    21    1
    31    20    22    1
    32    20    23    1
    33    16    17   ar
    34    17    18   ar
    35    10    11    1
    36    11    12    1
    37     4     5   ar
    38     5     6   ar
    39    38    29   ar
    40     6     1   ar
    41    37    31   ar
    42    12     7    1
    43    18    13   ar
    44    27    28    1
@<TRIPOS>MOLECULE
*****
 40 44 0 0 0
SMALL
GASTEIGER

@<TRIPOS>ATOM
      1 C          58.9644   91.6962    4.4445 C.ar    1  UNL1       -0.0025
      2 C          57.9712   90.9687    5.3013 C.ar    1  UNL1       -0.0014
      3 C          58.4455   89.9807    6.3254 C.ar    1  UNL1        0.0142
      4 C          59.9132   89.7200    6.4926 C.ar    1  UNL1        0.0478
      5 C          60.9065   90.4475    5.6358 C.ar    1  UNL1        0.0142
      6 C          60.4321   91.4356    4.6117 C.ar    1  UNL1       -0.0014
      7 N          60.3876   88.7320    7.5167 N.pl3   1  UNL1       -0.3075
      8 C          61.0835   89.2118    8.7558 C.3     1  UNL1        0.0911
      9 C          61.5579   88.2237    9.7799 C.3     1  UNL1        0.0258
     10 C          61.3364   86.7558    9.5647 C.3     1  UNL1        0.0257
     11 C          60.6406   86.2760    8.3256 C.3     1  UNL1        0.0258
     12 C          60.1662   87.2641    7.3015 C.3     1  UNL1        0.0911
     13 C          61.8108   85.7678   10.5888 C.ar    1  UNL1       -0.0222
     14 C          61.7916   86.1287   12.0445 C.ar    1  UNL1       -0.0012
     15 C          62.2660   85.1406   13.0686 C.ar    1  UNL1        0.0369
     16 C          62.7596   83.7916   12.6368 C.ar    1  UNL1        0.1468
     17 C          62.7788   83.4307   11.1811 C.ar    1  UNL1        0.0369
     18 C          62.3045   84.4187   10.1570 C.ar    1  UNL1       -0.0012
     19 O          63.2340   82.8035   13.6609 O.3     1  UNL1       -0.4045
     20 C          63.8393   83.2868   14.9454 C.3     1  UNL1        0.5753
     21 F          64.4447   83.7702   16.2299 F       1  UNL1       -0.1328
     22 F          62.5642   82.9658   15.6671 F       1  UNL1       -0.1328
     23 F          65.1145   83.6079   14.2236 F       1  UNL1       -0.1328
     24 C          58.4900   92.6843    3.4205 C.3     1  UNL1        0.1166
     25 C          59.4195   93.2630    1.0644 C.2     1  UNL1        0.2635
     26 O          58.3635   92.4023    0.4364 O.2     1  UNL1       -0.2685
     27 N          59.4827   93.4039    2.5564 N.am    1  UNL1       -0.2957
     28 H          60.1757   93.9688    2.9685 H       1  UNL1        0.1501
     29 C          61.8716   94.1629    0.4965 C.ar    1  UNL1        0.0811
     30 N          62.4811   94.9400   -0.6325 N.ar    1  UNL1       -0.2306
     31 C          61.3984   95.2401   -1.6264 C.ar    1  UNL1        0.1483
     32 C          61.4117   95.9756   -2.9335 C.ar    1  UNL1        0.0488
     33 C          60.1463   96.1195   -3.7260 C.ar    1  UNL1        0.0622
     34 CL         60.1595   96.8551   -5.0332 Cl      1  UNL1       -0.0821
     35 C          58.8676   95.5278   -3.2113 C.ar    1  UNL1        0.0305
     36 C          58.8544   94.7922   -1.9041 C.ar    1  UNL1        0.0824
     37 N          60.1197   94.6484   -1.1117 N.ar    1  UNL1       -0.2853
     38 C          60.4122   93.9826    0.2003 C.ar    1  UNL1        0.1326
     39 C          64.0162   93.1907    1.5944 C.3     1  UNL1        0.0067
     40 C          62.5945   93.6551    1.7087 C.3     1  UNL1        0.0475
@<TRIPOS>BOND
     1    39    40    1
     2    40    29    1
     3    29    30   ar
     4    30    31   ar
     5    31    32   ar
     6    32    33   ar
     7    33    34    1
     8    33    35   ar
     9    35    36   ar
    10    36    37   ar
    11    37    38   ar
    12    38    25    1
    13    25    26    2
    14    25    27   am
    15    27    24    1
    16    24     1    1
    17     1     2   ar
    18     2     3   ar
    19     3     4   ar
    20     4     7    1
    21     7     8    1
    22     8     9    1
    23     9    10    1
    24    10    13    1
    25    13    14   ar
    26    14    15   ar
    27    15    16   ar
    28    16    19    1
    29    19    20    1
    30    20    21    1
    31    20    22    1
    32    20    23    1
    33    16    17   ar
    34    17    18   ar
    35    10    11    1
    36    11    12    1
    37     4     5   ar
    38     5     6   ar
    39    38    29   ar
    40     6     1   ar
    41    37    31   ar
    42    12     7    1
    43    18    13   ar
    44    27    28    1
