@<TRIPOS>MOLECULE
*****
 28 31 0 0 0
SMALL
GASTEIGER

@<TRIPOS>ATOM
      1 C          65.0640   91.2283   13.2707 C.ar    1  UNL1        0.0689
      2 C          65.1693   90.4766   14.5645 C.ar    1  UNL1        0.0161
      3 C          64.3737   89.2216   14.7695 C.ar    1  UNL1        0.0014
      4 C          63.4730   88.7183   13.6808 C.ar    1  UNL1        0.0021
      5 C          63.3678   89.4699   12.3870 C.ar    1  UNL1        0.0251
      6 C          64.1633   90.7249   12.1820 C.ar    1  UNL1        0.0181
      7 C          62.4670   88.9666   11.2983 C.ar    1  UNL1        0.1107
      8 N          62.2394   87.5288   10.9366 N.ar    1  UNL1       -0.2383
      9 C          61.2674   87.4863    9.7949 C.ar    1  UNL1        0.0878
     10 C          60.6739   86.3446    9.0240 C.ar    1  UNL1        0.0196
     11 C          59.7073   86.6145    7.9092 C.ar    1  UNL1        0.0016
     12 C          59.3342   88.0261    7.5653 C.ar    1  UNL1        0.0006
     13 C          59.9277   89.1678    8.3362 C.ar    1  UNL1        0.0080
     14 C          60.8943   88.8979    9.4510 C.ar    1  UNL1        0.0485
     15 S          61.6357   89.8127   10.3802 S.2     1  UNL1       -0.0665
     16 N          65.8596   92.4833   13.0656 N.pl3   1  UNL1       -0.1898
     17 S          66.9669   92.8330   14.0151 S.O2    1  UNL1        0.0572
     18 O          66.1449   93.9647   14.5570 O.2     1  UNL1       -0.1543
     19 O          67.7889   91.7013   13.4733 O.2     1  UNL1       -0.1543
     20 C          68.2373   92.4138   16.2424 C.3     1  UNL1        0.0292
     21 C          68.0742   93.1827   14.9647 C.3     1  UNL1        0.1727
     22 C          65.5478   93.3887   11.9110 C.3     1  UNL1        0.1433
     23 C          66.5025   93.4902   10.7585 C.ar    1  UNL1        0.0186
     24 C          67.2885   92.2876   10.3274 C.ar    1  UNL1        0.0006
     25 C          68.2432   92.3892    9.1750 C.ar    1  UNL1        0.0204
     26 C          68.4118   93.6935    8.4535 C.ar    1  UNL1        0.0989
     27 N          67.6258   94.8961    8.8845 N.ar    1  UNL1       -0.2426
     28 C          66.6711   94.7945   10.0370 C.ar    1  UNL1        0.0963
@<TRIPOS>BOND
     1    20    21    1
     2    21    17    1
     3    17    18    2
     4    17    19    2
     5    17    16    1
     6    16    22    1
     7    22    23    1
     8    23    24   ar
     9    24    25   ar
    10    25    26   ar
    11    26    27   ar
    12    27    28   ar
    13    16     1    1
    14     1     2   ar
    15     2     3   ar
    16     3     4   ar
    17     4     5   ar
    18     5     7    1
    19     7     8   ar
    20     8     9   ar
    21     9    10   ar
    22    10    11   ar
    23    11    12   ar
    24    12    13   ar
    25    13    14   ar
    26    14    15   ar
    27     5     6   ar
    28    28    23   ar
    29     6     1   ar
    30    15     7   ar
    31    14     9   ar
@<TRIPOS>MOLECULE
*****
 28 31 0 0 0
SMALL
GASTEIGER

@<TRIPOS>ATOM
      1 C          64.8967   91.0022   14.5480 C.ar    1  UNL1        0.0689
      2 C          64.2506   91.4036   15.8408 C.ar    1  UNL1        0.0161
      3 C          63.4860   90.3926   16.6428 C.ar    1  UNL1        0.0014
      4 C          63.3676   88.9801   16.1519 C.ar    1  UNL1        0.0021
      5 C          64.0137   88.5787   14.8591 C.ar    1  UNL1        0.0251
      6 C          64.7782   89.5897   14.0572 C.ar    1  UNL1        0.0181
      7 C          63.8952   87.1662   14.3683 C.ar    1  UNL1        0.1107
      8 N          63.3665   86.7388   13.0312 N.ar    1  UNL1       -0.2383
      9 C          63.4292   85.2416   12.9649 C.ar    1  UNL1        0.0878
     10 C          63.0428   84.2674   11.8918 C.ar    1  UNL1        0.0196
     11 C          63.2240   82.7952   12.1148 C.ar    1  UNL1        0.0016
     12 C          63.7914   82.2972   13.4110 C.ar    1  UNL1        0.0006
     13 C          64.1777   83.2714   14.4841 C.ar    1  UNL1        0.0080
     14 C          63.9966   84.7436   14.2611 C.ar    1  UNL1        0.0485
     15 S          64.2846   85.9331   15.1284 S.2     1  UNL1       -0.0665
     16 N          65.6613   92.0132   13.7459 N.pl3   1  UNL1       -0.1898
     17 S          66.9090   92.6279   14.3076 S.O2    1  UNL1        0.0572
     18 O          66.1461   93.8771   14.6353 O.2     1  UNL1       -0.1543
     19 O          67.6719   91.3786   13.9799 O.2     1  UNL1       -0.1543
     20 C          68.7772   92.6773   16.1125 C.3     1  UNL1        0.0292
     21 C          68.1567   93.2425   14.8692 C.3     1  UNL1        0.1727
     22 C          65.1782   92.4096   12.3823 C.3     1  UNL1        0.1433
     23 C          66.1240   93.0455   11.4070 C.ar    1  UNL1        0.0186
     24 C          67.0273   92.1885   10.5707 C.ar    1  UNL1        0.0006
     25 C          67.9731   92.8244    9.5955 C.ar    1  UNL1        0.0204
     26 C          68.0155   94.3173    9.4566 C.ar    1  UNL1        0.0989
     27 N          67.1122   95.1744   10.2929 N.ar    1  UNL1       -0.2426
     28 C          66.1664   94.5384   11.2681 C.ar    1  UNL1        0.0963
@<TRIPOS>BOND
     1    20    21    1
     2    21    17    1
     3    17    18    2
     4    17    19    2
     5    17    16    1
     6    16    22    1
     7    22    23    1
     8    23    24   ar
     9    24    25   ar
    10    25    26   ar
    11    26    27   ar
    12    27    28   ar
    13    16     1    1
    14     1     2   ar
    15     2     3   ar
    16     3     4   ar
    17     4     5   ar
    18     5     7    1
    19     7     8   ar
    20     8     9   ar
    21     9    10   ar
    22    10    11   ar
    23    11    12   ar
    24    12    13   ar
    25    13    14   ar
    26    14    15   ar
    27     5     6   ar
    28    28    23   ar
    29     6     1   ar
    30    15     7   ar
    31    14     9   ar
@<TRIPOS>MOLECULE
*****
 28 31 0 0 0
SMALL
GASTEIGER

@<TRIPOS>ATOM
      1 C          64.4147   91.4050   13.2412 C.ar    1  UNL1        0.0689
      2 C          65.1531   92.4814   12.5022 C.ar    1  UNL1        0.0161
      3 C          64.9701   92.6354   11.0214 C.ar    1  UNL1        0.0014
      4 C          64.0488   91.7130   10.2796 C.ar    1  UNL1        0.0021
      5 C          63.3104   90.6366   11.0186 C.ar    1  UNL1        0.0251
      6 C          63.4933   90.4826   12.4994 C.ar    1  UNL1        0.0181
      7 C          62.3891   89.7141   10.2767 C.ar    1  UNL1        0.1107
      8 N          61.2200   90.1270    9.4325 N.ar    1  UNL1       -0.2383
      9 C          60.5835   88.8849    8.8829 C.ar    1  UNL1        0.0878
     10 C          59.3978   88.6764    7.9881 C.ar    1  UNL1        0.0196
     11 C          58.9878   87.2873    7.5980 C.ar    1  UNL1        0.0016
     12 C          59.7634   86.1068    8.1026 C.ar    1  UNL1        0.0006
     13 C          60.9491   86.3153    8.9973 C.ar    1  UNL1        0.0080
     14 C          61.3592   87.7044    9.3875 C.ar    1  UNL1        0.0485
     15 S          62.4751   88.2169   10.2489 S.2     1  UNL1       -0.0665
     16 N          64.5975   91.2510   14.7221 N.pl3   1  UNL1       -0.1898
     17 S          65.8072   91.8315   15.3927 S.O2    1  UNL1        0.0572
     18 O          66.6926   90.9746   14.5373 O.2     1  UNL1       -0.1543
     19 O          64.9217   92.6884   16.2481 O.2     1  UNL1       -0.1543
     20 C          67.8376   93.4521   15.3601 C.3     1  UNL1        0.0292
     21 C          67.0168   92.4120   16.0634 C.3     1  UNL1        0.1727
     22 C          63.5708   90.5166   15.5322 C.3     1  UNL1        0.1433
     23 C          63.6612   89.0271   15.6851 C.ar    1  UNL1        0.0186
     24 C          64.4153   88.2139   14.6752 C.ar    1  UNL1        0.0006
     25 C          64.5057   86.7244   14.8282 C.ar    1  UNL1        0.0204
     26 C          63.8420   86.0483   15.9910 C.ar    1  UNL1        0.0989
     27 N          63.0879   86.8615   17.0009 N.ar    1  UNL1       -0.2426
     28 C          62.9975   88.3509   16.8480 C.ar    1  UNL1        0.0963
@<TRIPOS>BOND
     1    20    21    1
     2    21    17    1
     3    17    18    2
     4    17    19    2
     5    17    16    1
     6    16    22    1
     7    22    23    1
     8    23    24   ar
     9    24    25   ar
    10    25    26   ar
    11    26    27   ar
    12    27    28   ar
    13    16     1    1
    14     1     2   ar
    15     2     3   ar
    16     3     4   ar
    17     4     5   ar
    18     5     7    1
    19     7     8   ar
    20     8     9   ar
    21     9    10   ar
    22    10    11   ar
    23    11    12   ar
    24    12    13   ar
    25    13    14   ar
    26    14    15   ar
    27     5     6   ar
    28    28    23   ar
    29     6     1   ar
    30    15     7   ar
    31    14     9   ar
@<TRIPOS>MOLECULE
*****
 28 31 0 0 0
SMALL
GASTEIGER

@<TRIPOS>ATOM
      1 C          63.4675   89.4424   12.5671 C.ar    1  UNL1        0.0689
      2 C          62.9171   89.9685   11.2747 C.ar    1  UNL1        0.0161
      3 C          62.3159   89.0245   10.2760 C.ar    1  UNL1        0.0014
      4 C          62.2650   87.5544   10.5698 C.ar    1  UNL1        0.0021
      5 C          62.8154   87.0283   11.8621 C.ar    1  UNL1        0.0251
      6 C          63.4167   87.9723   12.8608 C.ar    1  UNL1        0.0181
      7 C          62.7646   85.5582   12.1559 C.ar    1  UNL1        0.1107
      8 N          62.4916   84.9351   13.4927 N.ar    1  UNL1       -0.2383
      9 C          62.5361   83.4449   13.3274 C.ar    1  UNL1        0.0878
     10 C          62.3418   82.3208   14.3013 C.ar    1  UNL1        0.0196
     11 C          62.4481   80.8987   13.8361 C.ar    1  UNL1        0.0016
     12 C          62.7486   80.6008   12.3970 C.ar    1  UNL1        0.0006
     13 C          62.9428   81.7249   11.4231 C.ar    1  UNL1        0.0080
     14 C          62.8366   83.1470   11.8883 C.ar    1  UNL1        0.0485
     15 S          62.9778   84.4531   11.1643 S.2     1  UNL1       -0.0665
     16 N          64.0688   90.3864   13.5658 N.pl3   1  UNL1       -0.1898
     17 S          63.8388   90.1728   15.0326 S.O2    1  UNL1        0.0572
     18 O          64.6278   88.8985   14.9707 O.2     1  UNL1       -0.1543
     19 O          63.0498   91.4470   15.0945 O.2     1  UNL1       -0.1543
     20 C          63.1005   88.6374   16.9942 C.3     1  UNL1        0.0292
     21 C          63.6089   89.9591   16.4994 C.3     1  UNL1        0.1727
     22 C          64.8999   91.5440   13.0977 C.3     1  UNL1        0.1433
     23 C          66.1528   91.9143   13.8348 C.ar    1  UNL1        0.0186
     24 C          66.0790   92.3478   15.2689 C.ar    1  UNL1        0.0006
     25 C          67.3318   92.7181   16.0059 C.ar    1  UNL1        0.0204
     26 C          68.6585   92.6549   15.3088 C.ar    1  UNL1        0.0989
     27 N          68.7324   92.2214   13.8748 N.ar    1  UNL1       -0.2426
     28 C          67.4795   91.8511   13.1377 C.ar    1  UNL1        0.0963
@<TRIPOS>BOND
     1    20    21    1
     2    21    17    1
     3    17    18    2
     4    17    19    2
     5    17    16    1
     6    16    22    1
     7    22    23    1
     8    23    24   ar
     9    24    25   ar
    10    25    26   ar
    11    26    27   ar
    12    27    28   ar
    13    16     1    1
    14     1     2   ar
    15     2     3   ar
    16     3     4   ar
    17     4     5   ar
    18     5     7    1
    19     7     8   ar
    20     8     9   ar
    21     9    10   ar
    22    10    11   ar
    23    11    12   ar
    24    12    13   ar
    25    13    14   ar
    26    14    15   ar
    27     5     6   ar
    28    28    23   ar
    29     6     1   ar
    30    15     7   ar
    31    14     9   ar
@<TRIPOS>MOLECULE
*****
 28 31 0 0 0
SMALL
GASTEIGER

@<TRIPOS>ATOM
      1 C          61.5136   87.5229    9.7103 C.ar    1  UNL1        0.0689
      2 C          60.3845   88.2678    9.0621 C.ar    1  UNL1        0.0161
      3 C          60.2299   89.7422    9.2903 C.ar    1  UNL1        0.0014
      4 C          61.2044   90.4717   10.1668 C.ar    1  UNL1        0.0021
      5 C          62.3335   89.7268   10.8150 C.ar    1  UNL1        0.0251
      6 C          62.4881   88.2524   10.5868 C.ar    1  UNL1        0.0181
      7 C          63.3080   90.4563   11.6915 C.ar    1  UNL1        0.1107
      8 N          64.1806   91.6032   11.2756 N.ar    1  UNL1       -0.2383
      9 C          64.9929   92.0228   12.4648 C.ar    1  UNL1        0.0878
     10 C          66.0221   93.0984   12.6484 C.ar    1  UNL1        0.0196
     11 C          66.6807   93.2863   13.9828 C.ar    1  UNL1        0.0016
     12 C          66.3100   92.3986   15.1338 C.ar    1  UNL1        0.0006
     13 C          65.2808   91.3230   14.9502 C.ar    1  UNL1        0.0080
     14 C          64.6222   91.1351   13.6157 C.ar    1  UNL1        0.0485
     15 S          63.5809   90.1670   13.1378 S.2     1  UNL1       -0.0665
     16 N          61.6682   86.0483    9.4821 N.pl3   1  UNL1       -0.1898
     17 S          62.0833   85.5375    8.1342 S.O2    1  UNL1        0.0572
     18 O          63.5237   85.6306    8.5425 O.2     1  UNL1       -0.1543
     19 O          60.6430   85.4444    7.7259 O.2     1  UNL1       -0.1543
     20 C          61.5380   84.2232    5.9604 C.3     1  UNL1        0.0292
     21 C          62.4984   85.0267    6.7863 C.3     1  UNL1        0.1727
     22 C          61.4078   85.0847   10.6017 C.3     1  UNL1        0.1433
     23 C          62.5344   84.6426   11.4880 C.ar    1  UNL1        0.0186
     24 C          63.3323   83.4226   11.1345 C.ar    1  UNL1        0.0006
     25 C          64.4588   82.9805   12.0207 C.ar    1  UNL1        0.0204
     26 C          64.7873   83.7583   13.2605 C.ar    1  UNL1        0.0989
     27 N          63.9894   84.9782   13.6141 N.ar    1  UNL1       -0.2426
     28 C          62.8629   85.4204   12.7278 C.ar    1  UNL1        0.0963
@<TRIPOS>BOND
     1    20    21    1
     2    21    17    1
     3    17    18    2
     4    17    19    2
     5    17    16    1
     6    16    22    1
     7    22    23    1
     8    23    24   ar
     9    24    25   ar
    10    25    26   ar
    11    26    27   ar
    12    27    28   ar
    13    16     1    1
    14     1     2   ar
    15     2     3   ar
    16     3     4   ar
    17     4     5   ar
    18     5     7    1
    19     7     8   ar
    20     8     9   ar
    21     9    10   ar
    22    10    11   ar
    23    11    12   ar
    24    12    13   ar
    25    13    14   ar
    26    14    15   ar
    27     5     6   ar
    28    28    23   ar
    29     6     1   ar
    30    15     7   ar
    31    14     9   ar
@<TRIPOS>MOLECULE
*****
 28 31 0 0 0
SMALL
GASTEIGER

@<TRIPOS>ATOM
      1 C          63.3676   82.8172   12.4455 C.ar    1  UNL1        0.0689
      2 C          64.3827   82.1382   11.5745 C.ar    1  UNL1        0.0161
      3 C          64.6401   82.6462   10.1869 C.ar    1  UNL1        0.0014
      4 C          63.8824   83.8332    9.6701 C.ar    1  UNL1        0.0021
      5 C          62.8673   84.5121   10.5411 C.ar    1  UNL1        0.0251
      6 C          62.6099   84.0042   11.9287 C.ar    1  UNL1        0.0181
      7 C          62.1097   85.6991   10.0243 C.ar    1  UNL1        0.1107
      8 N          61.2296   85.7229    8.8099 N.ar    1  UNL1       -0.2383
      9 C          60.6750   87.1092    8.6663 C.ar    1  UNL1        0.0878
     10 C          59.7502   87.7206    7.6559 C.ar    1  UNL1        0.0196
     11 C          59.3627   89.1650    7.7713 C.ar    1  UNL1        0.0016
     12 C          59.9001   89.9981    8.8970 C.ar    1  UNL1        0.0006
     13 C          60.8249   89.3867    9.9074 C.ar    1  UNL1        0.0080
     14 C          61.2124   87.9423    9.7920 C.ar    1  UNL1        0.0485
     15 S          62.0990   87.0708   10.6313 S.2     1  UNL1       -0.0665
     16 N          63.1102   82.3092   13.8332 N.pl3   1  UNL1       -0.1898
     17 S          62.0998   81.2238   14.0591 S.O2    1  UNL1        0.0572
     18 O          61.1032   82.2469   14.5176 O.2     1  UNL1       -0.1543
     19 O          63.0964   80.2007   13.6007 O.2     1  UNL1       -0.1543
     20 C          59.6245   80.4442   14.1826 C.3     1  UNL1        0.0292
     21 C          61.0894   80.1384   14.2850 C.3     1  UNL1        0.1727
     22 C          63.8631   82.8866   14.9949 C.3     1  UNL1        0.1433
     23 C          63.7757   84.3547   15.2902 C.ar    1  UNL1        0.0186
     24 C          64.7432   85.3070   14.6522 C.ar    1  UNL1        0.0006
     25 C          64.6558   86.7750   14.9475 C.ar    1  UNL1        0.0204
     26 C          63.6010   87.2908   15.8808 C.ar    1  UNL1        0.0989
     27 N          62.6335   86.3386   16.5189 N.ar    1  UNL1       -0.2426
     28 C          62.7208   84.8705   16.2236 C.ar    1  UNL1        0.0963
@<TRIPOS>BOND
     1    20    21    1
     2    21    17    1
     3    17    18    2
     4    17    19    2
     5    17    16    1
     6    16    22    1
     7    22    23    1
     8    23    24   ar
     9    24    25   ar
    10    25    26   ar
    11    26    27   ar
    12    27    28   ar
    13    16     1    1
    14     1     2   ar
    15     2     3   ar
    16     3     4   ar
    17     4     5   ar
    18     5     7    1
    19     7     8   ar
    20     8     9   ar
    21     9    10   ar
    22    10    11   ar
    23    11    12   ar
    24    12    13   ar
    25    13    14   ar
    26    14    15   ar
    27     5     6   ar
    28    28    23   ar
    29     6     1   ar
    30    15     7   ar
    31    14     9   ar
@<TRIPOS>MOLECULE
*****
 28 31 0 0 0
SMALL
GASTEIGER

@<TRIPOS>ATOM
      1 C          64.7108   90.6640   14.7342 C.ar    1  UNL1        0.0689
      2 C          64.0781   91.0657   16.0335 C.ar    1  UNL1        0.0161
      3 C          63.3678   90.0428   16.8696 C.ar    1  UNL1        0.0014
      4 C          63.2902   88.6182   16.4064 C.ar    1  UNL1        0.0021
      5 C          63.9230   88.2165   15.1071 C.ar    1  UNL1        0.0251
      6 C          64.6333   89.2394   14.2710 C.ar    1  UNL1        0.0181
      7 C          63.8454   86.7920   14.6439 C.ar    1  UNL1        0.1107
      8 N          63.4905   86.3326   13.2607 N.ar    1  UNL1       -0.2383
      9 C          63.5349   84.8334   13.2445 C.ar    1  UNL1        0.0878
     10 C          63.2766   83.8333   12.1568 C.ar    1  UNL1        0.0196
     11 C          63.4006   82.3660   12.4422 C.ar    1  UNL1        0.0016
     12 C          63.7829   81.8987   13.8153 C.ar    1  UNL1        0.0006
     13 C          64.0413   82.8987   14.9030 C.ar    1  UNL1        0.0080
     14 C          63.9173   84.3661   14.6176 C.ar    1  UNL1        0.0485
     15 S          64.1092   85.5765   15.4824 S.2     1  UNL1       -0.0665
     16 N          65.4212   91.6869   13.8980 N.pl3   1  UNL1       -0.1898
     17 S          66.6055   92.4197   14.4552 S.O2    1  UNL1        0.0572
     18 O          67.2848   91.1113   14.7320 O.2     1  UNL1       -0.1543
     19 O          65.9263   93.7281   14.1783 O.2     1  UNL1       -0.1543
     20 C          68.6552   92.5004   16.0497 C.3     1  UNL1        0.0292
     21 C          67.7899   93.1524   15.0123 C.3     1  UNL1        0.1727
     22 C          64.9472   91.9770   12.5048 C.3     1  UNL1        0.1433
     23 C          63.7619   91.2454   11.9482 C.ar    1  UNL1        0.0186
     24 C          63.6036   91.0929   10.4644 C.ar    1  UNL1        0.0006
     25 C          62.4183   90.3613    9.9079 C.ar    1  UNL1        0.0204
     26 C          61.3912   89.7822   10.8352 C.ar    1  UNL1        0.0989
     27 N          61.5495   89.9348   12.3190 N.ar    1  UNL1       -0.2426
     28 C          62.7348   90.6664   12.8755 C.ar    1  UNL1        0.0963
@<TRIPOS>BOND
     1    20    21    1
     2    21    17    1
     3    17    18    2
     4    17    19    2
     5    17    16    1
     6    16    22    1
     7    22    23    1
     8    23    24   ar
     9    24    25   ar
    10    25    26   ar
    11    26    27   ar
    12    27    28   ar
    13    16     1    1
    14     1     2   ar
    15     2     3   ar
    16     3     4   ar
    17     4     5   ar
    18     5     7    1
    19     7     8   ar
    20     8     9   ar
    21     9    10   ar
    22    10    11   ar
    23    11    12   ar
    24    12    13   ar
    25    13    14   ar
    26    14    15   ar
    27     5     6   ar
    28    28    23   ar
    29     6     1   ar
    30    15     7   ar
    31    14     9   ar
@<TRIPOS>MOLECULE
*****
 28 31 0 0 0
SMALL
GASTEIGER

@<TRIPOS>ATOM
      1 C          63.7890   88.7103   15.0689 C.ar    1  UNL1        0.0689
      2 C          63.4880   88.8294   16.5335 C.ar    1  UNL1        0.0161
      3 C          63.0792   87.6168   17.3161 C.ar    1  UNL1        0.0014
      4 C          62.9714   86.2851   16.6340 C.ar    1  UNL1        0.0021
      5 C          63.2725   86.1661   15.1694 C.ar    1  UNL1        0.0251
      6 C          63.6813   87.3787   14.3868 C.ar    1  UNL1        0.0181
      7 C          63.1647   84.8345   14.4873 C.ar    1  UNL1        0.1107
      8 N          62.7434   83.5463   15.1299 N.ar    1  UNL1       -0.2383
      9 C          62.7777   82.4729   14.0826 C.ar    1  UNL1        0.0878
     10 C          62.4631   81.0073   14.1369 C.ar    1  UNL1        0.0196
     11 C          62.5911   80.1666   12.9013 C.ar    1  UNL1        0.0016
     12 C          63.0336   80.7915   11.6114 C.ar    1  UNL1        0.0006
     13 C          63.3481   82.2571   11.5572 C.ar    1  UNL1        0.0080
     14 C          63.2202   83.0978   12.7928 C.ar    1  UNL1        0.0485
     15 S          63.4594   84.5573   13.0429 S.2     1  UNL1       -0.0665
     16 N          64.1979   89.9230   14.2863 N.pl3   1  UNL1       -0.1898
     17 S          64.8651   91.0735   14.9800 S.O2    1  UNL1        0.0572
     18 O          66.2059   90.5512   14.5566 O.2     1  UNL1       -0.1543
     19 O          63.5242   91.5958   15.4033 O.2     1  UNL1       -0.1543
     20 C          66.9511   92.5796   15.3411 C.3     1  UNL1        0.0292
     21 C          65.5322   92.2240   15.6737 C.3     1  UNL1        0.1727
     22 C          63.9396   89.9851   12.8100 C.3     1  UNL1        0.1433
     23 C          62.6785   89.4023   12.2441 C.ar    1  UNL1        0.0186
     24 C          62.7441   88.2056   11.3422 C.ar    1  UNL1        0.0006
     25 C          61.4831   87.6229   10.7764 C.ar    1  UNL1        0.0204
     26 C          60.1564   88.2369   11.1124 C.ar    1  UNL1        0.0989
     27 N          60.0908   89.4337   12.0142 N.ar    1  UNL1       -0.2426
     28 C          61.3518   90.0164   12.5801 C.ar    1  UNL1        0.0963
@<TRIPOS>BOND
     1    20    21    1
     2    21    17    1
     3    17    18    2
     4    17    19    2
     5    17    16    1
     6    16    22    1
     7    22    23    1
     8    23    24   ar
     9    24    25   ar
    10    25    26   ar
    11    26    27   ar
    12    27    28   ar
    13    16     1    1
    14     1     2   ar
    15     2     3   ar
    16     3     4   ar
    17     4     5   ar
    18     5     7    1
    19     7     8   ar
    20     8     9   ar
    21     9    10   ar
    22    10    11   ar
    23    11    12   ar
    24    12    13   ar
    25    13    14   ar
    26    14    15   ar
    27     5     6   ar
    28    28    23   ar
    29     6     1   ar
    30    15     7   ar
    31    14     9   ar
@<TRIPOS>MOLECULE
*****
 28 31 0 0 0
SMALL
GASTEIGER

@<TRIPOS>ATOM
      1 C          61.7795   86.9605   11.0604 C.ar    1  UNL1        0.0689
      2 C          60.3474   87.3855   10.9253 C.ar    1  UNL1        0.0161
      3 C          59.9339   88.7687   11.3322 C.ar    1  UNL1        0.0014
      4 C          60.9526   89.7270   11.8744 C.ar    1  UNL1        0.0021
      5 C          62.3848   89.3021   12.0095 C.ar    1  UNL1        0.0251
      6 C          62.7982   87.9188   11.6025 C.ar    1  UNL1        0.0181
      7 C          63.4035   90.2604   12.5516 C.ar    1  UNL1        0.1107
      8 N          63.9552   90.2649   13.9464 N.ar    1  UNL1       -0.2383
      9 C          64.9420   91.3898   14.0510 C.ar    1  UNL1        0.0878
     10 C          65.7951   91.8743   15.1856 C.ar    1  UNL1        0.0196
     11 C          66.7064   93.0495   14.9899 C.ar    1  UNL1        0.0016
     12 C          66.7646   93.7402   13.6597 C.ar    1  UNL1        0.0006
     13 C          65.9115   93.2557   12.5251 C.ar    1  UNL1        0.0080
     14 C          65.0002   92.0804   12.7207 C.ar    1  UNL1        0.0485
     15 S          64.0493   91.3824   11.7941 S.2     1  UNL1       -0.0665
     16 N          62.1930   85.5772   10.6535 N.pl3   1  UNL1       -0.1898
     17 S          62.6503   85.3137    9.2494 S.O2    1  UNL1        0.0572
     18 O          63.5719   84.2417    9.7507 O.2     1  UNL1       -0.1543
     19 O          61.7287   86.3858    8.7480 O.2     1  UNL1       -0.1543
     20 C          62.1033   84.7385    6.7755 C.3     1  UNL1        0.0292
     21 C          63.1076   85.0503    7.8453 C.3     1  UNL1        0.1727
     22 C          62.1493   84.4575   11.6506 C.3     1  UNL1        0.1433
     23 C          62.7257   84.6513   13.0218 C.ar    1  UNL1        0.0186
     24 C          63.7904   85.6832   13.2488 C.ar    1  UNL1        0.0006
     25 C          64.3667   85.8769   14.6200 C.ar    1  UNL1        0.0204
     26 C          63.8784   85.0388   15.7642 C.ar    1  UNL1        0.0989
     27 N          62.8137   84.0070   15.5372 N.ar    1  UNL1       -0.2426
     28 C          62.2373   83.8132   14.1660 C.ar    1  UNL1        0.0963
@<TRIPOS>BOND
     1    20    21    1
     2    21    17    1
     3    17    18    2
     4    17    19    2
     5    17    16    1
     6    16    22    1
     7    22    23    1
     8    23    24   ar
     9    24    25   ar
    10    25    26   ar
    11    26    27   ar
    12    27    28   ar
    13    16     1    1
    14     1     2   ar
    15     2     3   ar
    16     3     4   ar
    17     4     5   ar
    18     5     7    1
    19     7     8   ar
    20     8     9   ar
    21     9    10   ar
    22    10    11   ar
    23    11    12   ar
    24    12    13   ar
    25    13    14   ar
    26    14    15   ar
    27     5     6   ar
    28    28    23   ar
    29     6     1   ar
    30    15     7   ar
    31    14     9   ar
