@<TRIPOS>MOLECULE
*****
 32 36 0 0 0
SMALL
GASTEIGER

@<TRIPOS>ATOM
      1 N          59.6607   89.2823    7.2260 N.ar    1  UNL1       -0.2286
      2 C          59.6723   87.7825    7.2058 C.ar    1  UNL1        0.0990
      3 C          60.4397   87.3088    8.4044 C.ar    1  UNL1        0.0338
      4 C          60.9024   88.5158    9.1653 C.ar    1  UNL1        0.0981
      5 N          60.4210   89.7355    8.4371 N.ar    1  UNL1       -0.1680
      6 C          61.6699   88.0420   10.3639 C.3     1  UNL1        0.1414
      7 N          61.6815   86.5421   10.3438 N.am    1  UNL1       -0.2661
      8 C          62.3380   85.6518   11.3567 C.2     1  UNL1        0.2496
      9 O          62.2656   84.1613   11.2042 O.2     1  UNL1       -0.2699
     10 C          60.9212   86.0890    9.1327 C.3     1  UNL1        0.1236
     11 C          60.0242   92.7995    3.4184 C.3     1  UNL1        0.0521
     12 C          59.1859   91.9313    4.3092 C.ar    1  UNL1        0.0609
     13 C          59.8424   91.0409    5.3222 C.ar    1  UNL1        0.0339
     14 C          59.0041   90.1727    6.2130 C.ar    1  UNL1        0.0855
     15 C          57.5093   90.1949    6.0908 C.ar    1  UNL1        0.0398
     16 C          56.8528   91.0853    5.0778 C.ar    1  UNL1        0.1000
     17 N          57.6910   91.9535    4.1870 N.ar    1  UNL1       -0.2480
     18 C          63.0670   86.2519   12.5222 C.ar    1  UNL1        0.0543
     19 C          63.2522   87.7380   12.6064 C.ar    1  UNL1        0.0148
     20 C          63.9813   88.3382   13.7720 C.ar    1  UNL1        0.0686
     21 C          64.5251   87.4522   14.8532 C.ar    1  UNL1        0.0103
     22 C          64.3399   85.9660   14.7691 C.ar    1  UNL1        0.0008
     23 C          63.6108   85.3659   13.6036 C.ar    1  UNL1        0.0045
     24 C          63.4256   83.8798   13.5194 C.ar    1  UNL1        0.0024
     25 C          64.4610   83.0321   12.8416 C.ar    1  UNL1        0.0001
     26 C          64.2758   81.5460   12.7574 C.ar    1  UNL1        0.0023
     27 C          63.0552   80.9076   13.3510 C.ar    1  UNL1        0.0296
     28 C          62.0197   81.7551   14.0288 C.ar    1  UNL1        0.1401
     29 F          60.7991   81.1166   14.6225 F       1  UNL1       -0.2042
     30 C          62.2049   83.2413   14.1131 C.ar    1  UNL1        0.0296
     31 C          64.1665   89.8243   13.8560 C.1     1  UNL1        0.1004
     32 N          64.3515   91.3105   13.9400 N.1     1  UNL1       -0.1908
@<TRIPOS>BOND
     1    11    12    1
     2    12    13   ar
     3    13    14   ar
     4    14     1    1
     5     1     2   ar
     6     2     3   ar
     7     3     4   ar
     8     4     5   ar
     9     4     6    1
    10     6     7    1
    11     7     8   am
    12     8     9    2
    13     8    18    1
    14    18    19   ar
    15    19    20   ar
    16    20    31    1
    17    31    32    3
    18    20    21   ar
    19    21    22   ar
    20    22    23   ar
    21    23    24    1
    22    24    25   ar
    23    25    26   ar
    24    26    27   ar
    25    27    28   ar
    26    28    29    1
    27    28    30   ar
    28     7    10    1
    29    14    15   ar
    30    15    16   ar
    31    16    17   ar
    32    17    12   ar
    33     5     1   ar
    34    23    18   ar
    35    30    24   ar
    36    10     3    1
@<TRIPOS>MOLECULE
*****
 32 36 0 0 0
SMALL
GASTEIGER

@<TRIPOS>ATOM
      1 N          62.9235   83.5620   13.9428 N.ar    1  UNL1       -0.2286
      2 C          63.5945   84.2607   15.0880 C.ar    1  UNL1        0.0990
      3 C          63.8037   85.6939   14.6980 C.ar    1  UNL1        0.0338
      4 C          63.2621   85.8810   13.3117 C.ar    1  UNL1        0.0981
      5 N          62.7181   84.5633   12.8450 N.ar    1  UNL1       -0.1680
      6 C          63.4714   87.3142   12.9217 C.3     1  UNL1        0.1414
      7 N          64.1424   88.0130   14.0670 N.am    1  UNL1       -0.2661
      8 C          64.5384   89.4591   14.1073 C.2     1  UNL1        0.2496
      9 O          65.2054   90.0204   15.3281 O.2     1  UNL1       -0.2699
     10 C          64.3477   87.0116   15.1647 C.3     1  UNL1        0.1236
     11 C          59.2829   79.8796   14.3740 C.3     1  UNL1        0.0521
     12 C          60.7072   80.2745   14.1180 C.ar    1  UNL1        0.0609
     13 C          61.1033   81.7207   14.1584 C.ar    1  UNL1        0.0339
     14 C          62.5275   82.1158   13.9024 C.ar    1  UNL1        0.0855
     15 C          63.5557   81.0646   13.6060 C.ar    1  UNL1        0.0398
     16 C          63.1595   79.6184   13.5657 C.ar    1  UNL1        0.1000
     17 N          61.7353   79.2233   13.8217 N.ar    1  UNL1       -0.2480
     18 C          64.2673   90.3442   12.9270 C.ar    1  UNL1        0.0543
     19 C          63.1988   89.9739   11.9416 C.ar    1  UNL1        0.0148
     20 C          62.9277   90.8590   10.7612 C.ar    1  UNL1        0.0686
     21 C          63.7252   92.1143   10.5662 C.ar    1  UNL1        0.0103
     22 C          64.7939   92.4847   11.5517 C.ar    1  UNL1        0.0008
     23 C          65.0649   91.5996   12.7320 C.ar    1  UNL1        0.0045
     24 C          66.1334   91.9699   13.7174 C.ar    1  UNL1        0.0024
     25 C          65.7561   92.4815   15.0760 C.ar    1  UNL1        0.0001
     26 C          66.8246   92.8518   16.0614 C.ar    1  UNL1        0.0023
     27 C          68.2706   92.7105   15.6882 C.ar    1  UNL1        0.0296
     28 C          68.6480   92.1989   14.3297 C.ar    1  UNL1        0.1401
     29 F          70.0939   92.0577   13.9564 F       1  UNL1       -0.2042
     30 C          67.5795   91.8286   13.3442 C.ar    1  UNL1        0.0296
     31 C          61.8591   90.4886    9.7758 C.1     1  UNL1        0.1004
     32 N          60.7905   90.1182    8.7906 N.1     1  UNL1       -0.1908
@<TRIPOS>BOND
     1    11    12    1
     2    12    13   ar
     3    13    14   ar
     4    14     1    1
     5     1     2   ar
     6     2     3   ar
     7     3     4   ar
     8     4     5   ar
     9     4     6    1
    10     6     7    1
    11     7     8   am
    12     8     9    2
    13     8    18    1
    14    18    19   ar
    15    19    20   ar
    16    20    31    1
    17    31    32    3
    18    20    21   ar
    19    21    22   ar
    20    22    23   ar
    21    23    24    1
    22    24    25   ar
    23    25    26   ar
    24    26    27   ar
    25    27    28   ar
    26    28    29    1
    27    28    30   ar
    28     7    10    1
    29    14    15   ar
    30    15    16   ar
    31    16    17   ar
    32    17    12   ar
    33     5     1   ar
    34    23    18   ar
    35    30    24   ar
    36    10     3    1
@<TRIPOS>MOLECULE
*****
 32 36 0 0 0
SMALL
GASTEIGER

@<TRIPOS>ATOM
      1 N          63.2622   84.4633   14.6426 N.ar    1  UNL1       -0.2286
      2 C          62.5892   85.2562   15.7235 C.ar    1  UNL1        0.0990
      3 C          63.0670   86.6745   15.6236 C.ar    1  UNL1        0.0338
      4 C          64.0354   86.7582   14.4811 C.ar    1  UNL1        0.0981
      5 N          64.1560   85.3915   13.8748 N.ar    1  UNL1       -0.1680
      6 C          64.5132   88.1765   14.3813 C.3     1  UNL1        0.1414
      7 N          63.8402   88.9696   15.4622 N.am    1  UNL1       -0.2661
      8 C          64.0279   90.4337   15.7285 C.2     1  UNL1        0.2496
      9 O          63.2832   91.0934   16.8511 O.2     1  UNL1       -0.2699
     10 C          62.9464   88.0412   16.2300 C.3     1  UNL1        0.1236
     11 C          60.1400   80.3325   14.2090 C.3     1  UNL1        0.0521
     12 C          61.5133   80.9336   14.1595 C.ar    1  UNL1        0.0609
     13 C          61.7012   82.3978   14.4258 C.ar    1  UNL1        0.0339
     14 C          63.0745   82.9991   14.3763 C.ar    1  UNL1        0.0855
     15 C          64.2601   82.1361   14.0605 C.ar    1  UNL1        0.0398
     16 C          64.0722   80.6719   13.7942 C.ar    1  UNL1        0.1000
     17 N          62.6989   80.0707   13.8437 N.ar    1  UNL1       -0.2480
     18 C          64.9604   91.2382   14.8722 C.ar    1  UNL1        0.0543
     19 C          66.1348   91.9354   15.4924 C.ar    1  UNL1        0.0148
     20 C          67.0674   92.7400   14.6361 C.ar    1  UNL1        0.0686
     21 C          66.8255   92.8473   13.1598 C.ar    1  UNL1        0.0103
     22 C          65.6511   92.1500   12.5394 C.ar    1  UNL1        0.0008
     23 C          64.7186   91.3455   13.3957 C.ar    1  UNL1        0.0045
     24 C          63.5442   90.6483   12.7755 C.ar    1  UNL1        0.0024
     25 C          62.2418   90.5701   13.5156 C.ar    1  UNL1        0.0001
     26 C          61.0674   89.8729   12.8953 C.ar    1  UNL1        0.0023
     27 C          61.1954   89.2539   11.5350 C.ar    1  UNL1        0.0296
     28 C          62.4977   89.3320   10.7949 C.ar    1  UNL1        0.1401
     29 F          62.6257   88.7130    9.4346 F       1  UNL1       -0.2042
     30 C          63.6722   90.0292   11.4151 C.ar    1  UNL1        0.0296
     31 C          68.2417   93.4371   15.2565 C.1     1  UNL1        0.1004
     32 N          69.4161   94.1342   15.8769 N.1     1  UNL1       -0.1908
@<TRIPOS>BOND
     1    11    12    1
     2    12    13   ar
     3    13    14   ar
     4    14     1    1
     5     1     2   ar
     6     2     3   ar
     7     3     4   ar
     8     4     5   ar
     9     4     6    1
    10     6     7    1
    11     7     8   am
    12     8     9    2
    13     8    18    1
    14    18    19   ar
    15    19    20   ar
    16    20    31    1
    17    31    32    3
    18    20    21   ar
    19    21    22   ar
    20    22    23   ar
    21    23    24    1
    22    24    25   ar
    23    25    26   ar
    24    26    27   ar
    25    27    28   ar
    26    28    29    1
    27    28    30   ar
    28     7    10    1
    29    14    15   ar
    30    15    16   ar
    31    16    17   ar
    32    17    12   ar
    33     5     1   ar
    34    23    18   ar
    35    30    24   ar
    36    10     3    1
