@<TRIPOS>MOLECULE
*****
 40 43 0 0 0
SMALL
GASTEIGER

@<TRIPOS>ATOM
      1 C          65.3566   90.6885   14.0904 C.ar    1  UNL1        0.0053
      2 C          65.0830   89.4006   14.8090 C.ar    1  UNL1        0.0033
      3 C          64.1671   88.3813   14.1990 C.ar    1  UNL1        0.0382
      4 C          63.5248   88.6499   12.8703 C.ar    1  UNL1        0.1529
      5 C          63.7984   89.9378   12.1517 C.ar    1  UNL1        0.0881
      6 C          64.7143   90.9571   12.7617 C.ar    1  UNL1        0.0181
      7 N          63.1561   90.2064   10.8230 N.am    1  UNL1       -0.2528
      8 C          62.2402   89.1871   10.2130 C.2     1  UNL1        0.2697
      9 O          61.5979   89.4557    8.8844 O.2     1  UNL1       -0.2704
     10 C          61.9666   87.8992   10.9316 C.3     1  UNL1        0.2197
     11 O          62.6089   87.6306   12.2603 O.3     1  UNL1       -0.4686
     12 C          67.5859   92.0220   14.0476 C.ar    1  UNL1        0.0645
     13 N          68.5018   93.0413   14.6575 N.ar    1  UNL1       -0.2183
     14 C          68.1043   93.7465   15.9204 C.ar    1  UNL1        0.2145
     15 N          69.0202   94.7658   16.5303 N.pl3   1  UNL1       -0.3274
     16 N          66.7909   93.4324   16.5732 N.ar    1  UNL1       -0.1995
     17 C          65.8750   92.4130   15.9632 C.ar    1  UNL1        0.1293
     18 N          64.5615   92.0989   16.6160 N.pl3   1  UNL1       -0.3425
     19 C          66.2725   91.7079   14.7004 C.ar    1  UNL1        0.0449
     20 H          69.8823   94.9720   16.1018 H       1  UNL1        0.1452
     21 H          68.7593   95.2287   17.3592 H       1  UNL1        0.1452
     22 H          64.3006   92.5617   17.4449 H       1  UNL1        0.1437
     23 H          63.9604   91.4298   16.2157 H       1  UNL1        0.1437
     24 C          68.2111   92.1020   11.5271 C.3     1  UNL1        0.0067
     25 C          67.9834   91.3168   12.7847 C.3     1  UNL1        0.0460
     26 C          61.1282   87.6960    9.7046 C.ar    1  UNL1        0.0264
     27 C          61.2070   86.4032    8.9479 C.ar    1  UNL1        0.0293
     28 C          60.3686   86.2001    7.7208 C.ar    1  UNL1        0.1422
     29 F          60.4475   84.9072    6.9642 F       1  UNL1       -0.2041
     30 C          59.4513   87.2896    7.2504 C.ar    1  UNL1        0.0592
     31 C          59.3724   88.5823    8.0071 C.ar    1  UNL1        0.1422
     32 F          58.4551   89.6719    7.5366 F       1  UNL1       -0.2041
     33 C          60.2108   88.7856    9.2341 C.ar    1  UNL1        0.0293
     34 C          61.4018   86.5407   11.2241 C.3     1  UNL1        0.0535
     35 C          62.2740   85.4799   11.8274 C.3     1  UNL1        0.0046
     36 C          63.4297   91.4943   10.1044 C.3     1  UNL1        0.1010
     37 C          64.8069   92.0883   10.1278 C.3     1  UNL1        0.0539
     38 C          65.0067   93.5006   10.5924 C.3     1  UNL1        0.1440
     39 O          66.1184   94.3284   10.0190 O.3     1  UNL1       -0.3510
     40 C          66.5126   95.6159   10.6801 C.3     1  UNL1        0.1741
@<TRIPOS>BOND
     1    24    25    1
     2    25    12    1
     3    12    13   ar
     4    13    14   ar
     5    14    15    1
     6    14    16   ar
     7    16    17   ar
     8    17    18    1
     9    17    19   ar
    10    19     1    1
    11     1     2   ar
    12     2     3   ar
    13     3     4   ar
    14     4     5   ar
    15     5     6   ar
    16     5     7    1
    17     7    36    1
    18    36    37    1
    19    37    38    1
    20    38    39    1
    21    39    40    1
    22     7     8   am
    23     8     9    2
    24     8    10    1
    25    10    34    1
    26    34    35    1
    27    10    26    1
    28    26    27   ar
    29    27    28   ar
    30    28    29    1
    31    28    30   ar
    32    30    31   ar
    33    31    32    1
    34    31    33   ar
    35    10    11    1
    36    19    12   ar
    37     6     1   ar
    38    33    26   ar
    39    11     4    1
    40    15    20    1
    41    15    21    1
    42    18    22    1
    43    18    23    1
@<TRIPOS>MOLECULE
*****
 40 43 0 0 0
SMALL
GASTEIGER

@<TRIPOS>ATOM
      1 C          64.6620   90.1672   13.7131 C.ar    1  UNL1        0.0053
      2 C          63.7170   90.4659   12.5872 C.ar    1  UNL1        0.0033
      3 C          62.9794   89.3487   11.9107 C.ar    1  UNL1        0.0382
      4 C          63.1868   87.9327   12.3602 C.ar    1  UNL1        0.1529
      5 C          64.1318   87.6340   13.4861 C.ar    1  UNL1        0.0881
      6 C          64.8694   88.7512   14.1625 C.ar    1  UNL1        0.0181
      7 N          64.3391   86.2180   13.9355 N.am    1  UNL1       -0.2528
      8 C          63.6015   85.1007   13.2591 C.2     1  UNL1        0.2697
      9 O          63.8089   83.6848   13.7085 O.2     1  UNL1       -0.2704
     10 C          62.6564   85.3995   12.1331 C.3     1  UNL1        0.2197
     11 O          62.4491   86.8154   11.6837 O.3     1  UNL1       -0.4686
     12 C          66.5542   91.9475   13.6985 C.ar    1  UNL1        0.0645
     13 N          67.2919   93.0647   14.3750 N.ar    1  UNL1       -0.2183
     14 C          66.8751   93.5189   15.7425 C.ar    1  UNL1        0.2145
     15 N          67.6128   94.6361   16.4189 N.pl3   1  UNL1       -0.3274
     16 N          65.7207   92.8559   16.4335 N.ar    1  UNL1       -0.1995
     17 C          64.9830   91.7386   15.7570 C.ar    1  UNL1        0.1293
     18 N          63.8285   91.0755   16.4481 N.pl3   1  UNL1       -0.3425
     19 C          65.3997   91.2844   14.3896 C.ar    1  UNL1        0.0449
     20 H          68.3705   95.0713   15.9654 H       1  UNL1        0.1452
     21 H          67.3393   94.9342   17.3165 H       1  UNL1        0.1452
     22 H          63.5549   91.3736   17.3456 H       1  UNL1        0.1437
     23 H          63.3443   90.3422   16.0041 H       1  UNL1        0.1437
     24 C          66.8354   92.4199   11.1593 C.3     1  UNL1        0.0067
     25 C          66.9710   91.4933   12.3310 C.3     1  UNL1        0.0460
     26 C          62.5190   83.9073   12.1996 C.ar    1  UNL1        0.0264
     27 C          61.8598   83.2668   13.3850 C.ar    1  UNL1        0.0293
     28 C          61.7224   81.7746   13.4514 C.ar    1  UNL1        0.1422
     29 F          61.0632   81.1342   14.6369 F       1  UNL1       -0.2041
     30 C          62.2442   80.9228   12.3325 C.ar    1  UNL1        0.0592
     31 C          62.9034   81.5633   11.1471 C.ar    1  UNL1        0.1422
     32 F          63.4253   80.7114   10.0281 F       1  UNL1       -0.2041
     33 C          63.0409   83.0555   11.0806 C.ar    1  UNL1        0.0293
     34 C          61.6637   85.1800   11.0303 C.3     1  UNL1        0.0535
     35 C          61.5853   86.1489    9.8879 C.3     1  UNL1        0.0046
     36 C          65.2842   85.9192   15.0614 C.3     1  UNL1        0.1010
     37 C          64.7487   85.6113   16.4283 C.3     1  UNL1        0.0539
     38 C          63.2777   85.3947   16.6263 C.3     1  UNL1        0.1440
     39 O          62.3722   86.5668   16.8633 O.3     1  UNL1       -0.3510
     40 C          62.9486   87.8879   17.2784 C.3     1  UNL1        0.1741
@<TRIPOS>BOND
     1    24    25    1
     2    25    12    1
     3    12    13   ar
     4    13    14   ar
     5    14    15    1
     6    14    16   ar
     7    16    17   ar
     8    17    18    1
     9    17    19   ar
    10    19     1    1
    11     1     2   ar
    12     2     3   ar
    13     3     4   ar
    14     4     5   ar
    15     5     6   ar
    16     5     7    1
    17     7    36    1
    18    36    37    1
    19    37    38    1
    20    38    39    1
    21    39    40    1
    22     7     8   am
    23     8     9    2
    24     8    10    1
    25    10    34    1
    26    34    35    1
    27    10    26    1
    28    26    27   ar
    29    27    28   ar
    30    28    29    1
    31    28    30   ar
    32    30    31   ar
    33    31    32    1
    34    31    33   ar
    35    10    11    1
    36    19    12   ar
    37     6     1   ar
    38    33    26   ar
    39    11     4    1
    40    15    20    1
    41    15    21    1
    42    18    22    1
    43    18    23    1
@<TRIPOS>MOLECULE
*****
 40 43 0 0 0
SMALL
GASTEIGER

@<TRIPOS>ATOM
      1 C          64.1625   89.4811   13.0659 C.ar    1  UNL1        0.0053
      2 C          64.4417   89.2900   14.5272 C.ar    1  UNL1        0.0033
      3 C          64.2134   87.9520   15.1656 C.ar    1  UNL1        0.0382
      4 C          63.7059   86.8051   14.3427 C.ar    1  UNL1        0.1529
      5 C          63.4267   86.9963   12.8814 C.ar    1  UNL1        0.0881
      6 C          63.6550   88.3343   12.2430 C.ar    1  UNL1        0.0181
      7 N          62.9192   85.8494   12.0585 N.am    1  UNL1       -0.2528
      8 C          62.6909   84.5114   12.6969 C.2     1  UNL1        0.2697
      9 O          62.1834   83.3646   11.8740 O.2     1  UNL1       -0.2704
     10 C          62.9701   84.3202   14.1583 C.3     1  UNL1        0.2197
     11 O          63.4776   85.4671   14.9812 O.3     1  UNL1       -0.4686
     12 C          65.2711   91.8306   13.0998 C.ar    1  UNL1        0.0645
     13 N          65.4994   93.1686   12.4614 N.ar    1  UNL1       -0.2183
     14 C          64.8474   93.4952   11.1506 C.ar    1  UNL1        0.2145
     15 N          65.0757   94.8332   10.5122 N.pl3   1  UNL1       -0.3274
     16 N          63.9670   92.4838   10.4782 N.ar    1  UNL1       -0.1995
     17 C          63.7387   91.1458   11.1167 C.ar    1  UNL1        0.1293
     18 N          62.8584   90.1344   10.4443 N.pl3   1  UNL1       -0.3425
     19 C          64.3908   90.8192   12.4274 C.ar    1  UNL1        0.0449
     20 H          65.6535   95.4970   10.9535 H       1  UNL1        0.1452
     21 H          64.6477   95.0476    9.6518 H       1  UNL1        0.1452
     22 H          62.4305   90.3487    9.5840 H       1  UNL1        0.1437
     23 H          62.7086   89.2562   10.8633 H       1  UNL1        0.1437
     24 C          67.4049   91.6709   14.5734 C.3     1  UNL1        0.0067
     25 C          65.9231   91.5040   14.4107 C.3     1  UNL1        0.0460
     26 C          62.5032   82.9406   13.7996 C.ar    1  UNL1        0.0264
     27 C          61.2773   82.3710   14.4497 C.ar    1  UNL1        0.0293
     28 C          60.8104   80.9914   14.0910 C.ar    1  UNL1        0.1422
     29 F          59.5844   80.4218   14.7411 F       1  UNL1       -0.2041
     30 C          61.5695   80.1813   13.0823 C.ar    1  UNL1        0.0592
     31 C          62.7955   80.7509   12.4323 C.ar    1  UNL1        0.1422
     32 F          63.5546   79.9408   11.4235 F       1  UNL1       -0.2041
     33 C          63.2624   82.1305   12.7909 C.ar    1  UNL1        0.0293
     34 C          63.0872   83.6499   15.4950 C.3     1  UNL1        0.0535
     35 C          62.8699   84.4398   16.7517 C.3     1  UNL1        0.0046
     36 C          62.6400   86.0406   10.5972 C.3     1  UNL1        0.1010
     37 C          61.2265   86.1846   10.1162 C.3     1  UNL1        0.0539
     38 C          60.5036   87.4872   10.2915 C.3     1  UNL1        0.1440
     39 O          60.1746   87.9830   11.6684 O.3     1  UNL1       -0.3510
     40 C          59.7084   89.3950   11.8657 C.3     1  UNL1        0.1741
@<TRIPOS>BOND
     1    24    25    1
     2    25    12    1
     3    12    13   ar
     4    13    14   ar
     5    14    15    1
     6    14    16   ar
     7    16    17   ar
     8    17    18    1
     9    17    19   ar
    10    19     1    1
    11     1     2   ar
    12     2     3   ar
    13     3     4   ar
    14     4     5   ar
    15     5     6   ar
    16     5     7    1
    17     7    36    1
    18    36    37    1
    19    37    38    1
    20    38    39    1
    21    39    40    1
    22     7     8   am
    23     8     9    2
    24     8    10    1
    25    10    34    1
    26    34    35    1
    27    10    26    1
    28    26    27   ar
    29    27    28   ar
    30    28    29    1
    31    28    30   ar
    32    30    31   ar
    33    31    32    1
    34    31    33   ar
    35    10    11    1
    36    19    12   ar
    37     6     1   ar
    38    33    26   ar
    39    11     4    1
    40    15    20    1
    41    15    21    1
    42    18    22    1
    43    18    23    1
@<TRIPOS>MOLECULE
*****
 40 43 0 0 0
SMALL
GASTEIGER

@<TRIPOS>ATOM
      1 C          62.6553   84.2208   12.5130 C.ar    1  UNL1        0.0053
      2 C          61.9077   84.8893   11.3976 C.ar    1  UNL1        0.0033
      3 C          61.9971   86.3760   11.2201 C.ar    1  UNL1        0.0382
      4 C          62.8341   87.1943   12.1581 C.ar    1  UNL1        0.1529
      5 C          63.5816   86.5259   13.2735 C.ar    1  UNL1        0.0881
      6 C          63.4922   85.0392   13.4510 C.ar    1  UNL1        0.0181
      7 N          64.4186   87.3443   14.2115 N.am    1  UNL1       -0.2528
      8 C          64.5080   88.8310   14.0340 C.2     1  UNL1        0.2697
      9 O          65.3450   89.6494   14.9720 O.2     1  UNL1       -0.2704
     10 C          63.7604   89.4995   12.9185 C.3     1  UNL1        0.2197
     11 O          62.9234   88.6812   11.9805 O.3     1  UNL1       -0.4686
     12 C          62.9021   81.8209   11.5490 C.ar    1  UNL1        0.0645
     13 N          62.8127   80.3341   11.7265 N.ar    1  UNL1       -0.2183
     14 C          62.3872   79.7604   13.0456 C.ar    1  UNL1        0.2145
     15 N          62.2979   78.2737   13.2231 N.pl3   1  UNL1       -0.3274
     16 N          62.0511   80.6736   14.1871 N.ar    1  UNL1       -0.1995
     17 C          62.1404   82.1604   14.0096 C.ar    1  UNL1        0.1293
     18 N          61.8042   83.0736   15.1512 N.pl3   1  UNL1       -0.3425
     19 C          62.5659   82.7340   12.6906 C.ar    1  UNL1        0.0449
     20 H          62.5185   77.6744   12.4738 H       1  UNL1        0.1452
     21 H          62.0186   77.8972   14.0888 H       1  UNL1        0.1452
     22 H          61.5250   82.6971   16.0169 H       1  UNL1        0.1437
     23 H          61.8629   84.0494   15.0347 H       1  UNL1        0.1437
     24 C          64.6865   83.0129   10.0843 C.3     1  UNL1        0.0067
     25 C          63.3276   82.3945   10.2299 C.3     1  UNL1        0.0460
     26 C          64.4169   90.6940   13.5446 C.ar    1  UNL1        0.0264
     27 C          64.1471   91.0312   14.9811 C.ar    1  UNL1        0.0293
     28 C          64.8037   92.2258   15.6072 C.ar    1  UNL1        0.1422
     29 F          64.5338   92.5628   17.0438 F       1  UNL1       -0.2041
     30 C          65.7299   93.0832   14.7969 C.ar    1  UNL1        0.0592
     31 C          65.9997   92.7460   13.3604 C.ar    1  UNL1        0.1422
     32 F          66.9260   93.6035   12.5500 F       1  UNL1       -0.2041
     33 C          65.3432   91.5515   12.7342 C.ar    1  UNL1        0.0293
     34 C          63.2408   90.5828   12.0205 C.3     1  UNL1        0.0535
     35 C          62.7847   90.2503   10.6307 C.3     1  UNL1        0.0046
     36 C          65.1662   86.6759   15.3270 C.3     1  UNL1        0.1010
     37 C          64.5198   85.5683   16.1050 C.3     1  UNL1        0.0539
     38 C          63.3658   85.8659   17.0161 C.3     1  UNL1        0.1440
     39 O          62.5206   87.0829   16.7826 O.3     1  UNL1       -0.3510
     40 C          62.9677   88.4174   17.3014 C.3     1  UNL1        0.1741
@<TRIPOS>BOND
     1    24    25    1
     2    25    12    1
     3    12    13   ar
     4    13    14   ar
     5    14    15    1
     6    14    16   ar
     7    16    17   ar
     8    17    18    1
     9    17    19   ar
    10    19     1    1
    11     1     2   ar
    12     2     3   ar
    13     3     4   ar
    14     4     5   ar
    15     5     6   ar
    16     5     7    1
    17     7    36    1
    18    36    37    1
    19    37    38    1
    20    38    39    1
    21    39    40    1
    22     7     8   am
    23     8     9    2
    24     8    10    1
    25    10    34    1
    26    34    35    1
    27    10    26    1
    28    26    27   ar
    29    27    28   ar
    30    28    29    1
    31    28    30   ar
    32    30    31   ar
    33    31    32    1
    34    31    33   ar
    35    10    11    1
    36    19    12   ar
    37     6     1   ar
    38    33    26   ar
    39    11     4    1
    40    15    20    1
    41    15    21    1
    42    18    22    1
    43    18    23    1
@<TRIPOS>MOLECULE
*****
 40 43 0 0 0
SMALL
GASTEIGER

@<TRIPOS>ATOM
      1 C          64.1359   89.4753   13.0705 C.ar    1  UNL1        0.0053
      2 C          64.3833   89.2981   14.5393 C.ar    1  UNL1        0.0033
      3 C          64.1473   87.9646   15.1841 C.ar    1  UNL1        0.0382
      4 C          63.6638   86.8082   14.3601 C.ar    1  UNL1        0.1529
      5 C          63.4163   86.9853   12.8914 C.ar    1  UNL1        0.0881
      6 C          63.6524   88.3189   12.2466 C.ar    1  UNL1        0.0181
      7 N          62.9328   85.8289   12.0674 N.am    1  UNL1       -0.2528
      8 C          62.6968   84.4953   12.7122 C.2     1  UNL1        0.2697
      9 O          62.2133   83.3389   11.8882 O.2     1  UNL1       -0.2704
     10 C          62.9442   84.3181   14.1810 C.3     1  UNL1        0.2197
     11 O          63.4277   85.4745   15.0050 O.3     1  UNL1       -0.4686
     12 C          63.6962   91.1453   11.1295 C.ar    1  UNL1        0.0645
     13 N          63.9322   92.4789   10.4846 N.ar    1  UNL1       -0.2183
     14 C          64.8441   93.4761   11.1359 C.ar    1  UNL1        0.2145
     15 N          65.0801   94.8096   10.4910 N.pl3   1  UNL1       -0.3274
     16 N          65.5199   93.1397   12.4321 N.ar    1  UNL1       -0.1995
     17 C          65.2838   91.8061   13.0770 C.ar    1  UNL1        0.1293
     18 N          65.9596   91.4696   14.3732 N.pl3   1  UNL1       -0.3425
     19 C          64.3720   90.8089   12.4257 C.ar    1  UNL1        0.0449
     20 H          64.6366   95.0304    9.6403 H       1  UNL1        0.1452
     21 H          65.6786   95.4641   10.9185 H       1  UNL1        0.1452
     22 H          66.5581   92.1241   14.8007 H       1  UNL1        0.1437
     23 H          65.8047   90.5944   14.7964 H       1  UNL1        0.1437
     24 C          61.2992   90.3561   10.5117 C.3     1  UNL1        0.0067
     25 C          62.7843   90.1481   10.4781 C.3     1  UNL1        0.0460
     26 C          62.4921   82.9332   13.8241 C.ar    1  UNL1        0.0264
     27 C          63.2739   82.1206   12.8349 C.ar    1  UNL1        0.0293
     28 C          62.8217   80.7356   12.4780 C.ar    1  UNL1        0.1422
     29 F          63.6036   79.9231   11.4887 F       1  UNL1       -0.2041
     30 C          61.5879   80.1632   13.1102 C.ar    1  UNL1        0.0592
     31 C          60.8062   80.9757   14.0994 C.ar    1  UNL1        0.1422
     32 F          59.5722   80.4032   14.7318 F       1  UNL1       -0.2041
     33 C          61.2582   82.3607   14.4564 C.ar    1  UNL1        0.0293
     34 C          63.0346   83.6600   15.5259 C.3     1  UNL1        0.0535
     35 C          62.8794   84.4784   16.7734 C.3     1  UNL1        0.0046
     36 C          62.6854   86.0061   10.5986 C.3     1  UNL1        0.1010
     37 C          61.2838   86.1626   10.0876 C.3     1  UNL1        0.0539
     38 C          61.0211   86.1766    8.6108 C.3     1  UNL1        0.1440
     39 O          59.6467   86.4871    8.0965 O.3     1  UNL1       -0.3510
     40 C          59.2941   87.8896    7.6982 C.3     1  UNL1        0.1741
@<TRIPOS>BOND
     1    24    25    1
     2    25    12    1
     3    12    13   ar
     4    13    14   ar
     5    14    15    1
     6    14    16   ar
     7    16    17   ar
     8    17    18    1
     9    17    19   ar
    10    19     1    1
    11     1     2   ar
    12     2     3   ar
    13     3     4   ar
    14     4     5   ar
    15     5     6   ar
    16     5     7    1
    17     7    36    1
    18    36    37    1
    19    37    38    1
    20    38    39    1
    21    39    40    1
    22     7     8   am
    23     8     9    2
    24     8    10    1
    25    10    34    1
    26    34    35    1
    27    10    26    1
    28    26    27   ar
    29    27    28   ar
    30    28    29    1
    31    28    30   ar
    32    30    31   ar
    33    31    32    1
    34    31    33   ar
    35    10    11    1
    36    19    12   ar
    37     6     1   ar
    38    33    26   ar
    39    11     4    1
    40    15    20    1
    41    15    21    1
    42    18    22    1
    43    18    23    1
@<TRIPOS>MOLECULE
*****
 40 43 0 0 0
SMALL
GASTEIGER

@<TRIPOS>ATOM
      1 C          65.3580   90.6907   14.0523 C.ar    1  UNL1        0.0053
      2 C          65.0876   89.4064   14.7785 C.ar    1  UNL1        0.0033
      3 C          64.1721   88.3824   14.1758 C.ar    1  UNL1        0.0382
      4 C          63.5270   88.6428   12.8469 C.ar    1  UNL1        0.1529
      5 C          63.7973   89.9271   12.1207 C.ar    1  UNL1        0.0881
      6 C          64.7128   90.9511   12.7234 C.ar    1  UNL1        0.0181
      7 N          63.1521   90.1875   10.7918 N.am    1  UNL1       -0.2528
      8 C          62.2366   89.1635   10.1891 C.2     1  UNL1        0.2697
      9 O          61.5915   89.4239    8.8602 O.2     1  UNL1       -0.2704
     10 C          61.9663   87.8791   10.9152 C.3     1  UNL1        0.2197
     11 O          62.6114   87.6187   12.2442 O.3     1  UNL1       -0.4686
     12 C          65.9533   92.3120   15.9932 C.ar    1  UNL1        0.0645
     13 N          66.8687   93.3360   16.5959 N.ar    1  UNL1       -0.2183
     14 C          68.1045   93.7628   15.8605 C.ar    1  UNL1        0.2145
     15 N          69.0200   94.7868   16.4632 N.pl3   1  UNL1       -0.3274
     16 N          68.4247   93.1655   14.5223 N.ar    1  UNL1       -0.1995
     17 C          67.5092   92.1414   13.9196 C.ar    1  UNL1        0.1293
     18 N          67.8294   91.5442   12.5814 N.pl3   1  UNL1       -0.3425
     19 C          66.2735   91.7147   14.6550 C.ar    1  UNL1        0.0449
     20 H          68.8098   95.1788   17.3415 H       1  UNL1        0.1452
     21 H          69.8310   95.0669   15.9805 H       1  UNL1        0.1452
     22 H          68.6405   91.8242   12.0987 H       1  UNL1        0.1437
     23 H          67.2286   90.8721   12.1858 H       1  UNL1        0.1437
     24 C          63.6938   92.9055   17.1303 C.3     1  UNL1        0.0067
     25 C          64.7175   91.8853   16.7287 C.3     1  UNL1        0.0460
     26 C          61.1259   87.6680    9.6909 C.ar    1  UNL1        0.0264
     27 C          60.1968   88.7488    9.2234 C.ar    1  UNL1        0.0293
     28 C          59.3564   88.5376    7.9990 C.ar    1  UNL1        0.1422
     29 F          58.4273   89.6186    7.5315 F       1  UNL1       -0.2041
     30 C          59.4450   87.2457    7.2421 C.ar    1  UNL1        0.0592
     31 C          60.3741   86.1649    7.7096 C.ar    1  UNL1        0.1422
     32 F          60.4627   84.8729    6.9527 F       1  UNL1       -0.2041
     33 C          61.2145   86.3759    8.9340 C.ar    1  UNL1        0.0293
     34 C          61.4040   86.5214   11.2162 C.3     1  UNL1        0.0535
     35 C          62.2776   85.4668   11.8284 C.3     1  UNL1        0.0046
     36 C          63.4225   91.4718   10.0656 C.3     1  UNL1        0.1010
     37 C          64.8167   92.0221   10.0087 C.3     1  UNL1        0.0539
     38 C          65.1512   93.2937   10.7308 C.3     1  UNL1        0.1440
     39 O          66.5520   93.8292   10.6969 O.3     1  UNL1       -0.3510
     40 C          67.4643   93.4717    9.5612 C.3     1  UNL1        0.1741
@<TRIPOS>BOND
     1    24    25    1
     2    25    12    1
     3    12    13   ar
     4    13    14   ar
     5    14    15    1
     6    14    16   ar
     7    16    17   ar
     8    17    18    1
     9    17    19   ar
    10    19     1    1
    11     1     2   ar
    12     2     3   ar
    13     3     4   ar
    14     4     5   ar
    15     5     6   ar
    16     5     7    1
    17     7    36    1
    18    36    37    1
    19    37    38    1
    20    38    39    1
    21    39    40    1
    22     7     8   am
    23     8     9    2
    24     8    10    1
    25    10    34    1
    26    34    35    1
    27    10    26    1
    28    26    27   ar
    29    27    28   ar
    30    28    29    1
    31    28    30   ar
    32    30    31   ar
    33    31    32    1
    34    31    33   ar
    35    10    11    1
    36    19    12   ar
    37     6     1   ar
    38    33    26   ar
    39    11     4    1
    40    15    20    1
    41    15    21    1
    42    18    22    1
    43    18    23    1
@<TRIPOS>MOLECULE
*****
 40 43 0 0 0
SMALL
GASTEIGER

@<TRIPOS>ATOM
      1 C          62.7978   84.0252   11.6956 C.ar    1  UNL1        0.0053
      2 C          62.0836   84.8538   10.6693 C.ar    1  UNL1        0.0033
      3 C          62.1094   86.3506   10.7637 C.ar    1  UNL1        0.0382
      4 C          62.8494   87.0188   11.8844 C.ar    1  UNL1        0.1529
      5 C          63.5636   86.1902   12.9107 C.ar    1  UNL1        0.0881
      6 C          63.5378   84.6934   12.8163 C.ar    1  UNL1        0.0181
      7 N          64.3036   86.8584   14.0314 N.am    1  UNL1       -0.2528
      8 C          64.3294   88.3551   14.1258 C.2     1  UNL1        0.2697
      9 O          65.0694   89.0233   15.2465 O.2     1  UNL1       -0.2704
     10 C          63.6152   89.1838   13.0995 C.3     1  UNL1        0.2197
     11 O          62.8752   88.5156   11.9788 O.3     1  UNL1       -0.4686
     12 C          62.1872   81.7164   12.7188 C.ar    1  UNL1        0.0645
     13 N          62.1614   80.2197   12.6245 N.ar    1  UNL1       -0.2183
     14 C          62.7203   79.5347   11.4126 C.ar    1  UNL1        0.2145
     15 N          62.6945   78.0380   11.3183 N.pl3   1  UNL1       -0.3274
     16 N          63.3051   80.3467   10.2951 N.ar    1  UNL1       -0.1995
     17 C          63.3309   81.8435   10.3895 C.ar    1  UNL1        0.1293
     18 N          63.9156   82.6555    9.2719 N.pl3   1  UNL1       -0.3425
     19 C          62.7720   82.5284   11.6013 C.ar    1  UNL1        0.0449
     20 H          62.3108   77.5051   12.0518 H       1  UNL1        0.1452
     21 H          63.0613   77.5885   10.5230 H       1  UNL1        0.1452
     22 H          64.2824   82.2060    8.4766 H       1  UNL1        0.1437
     23 H          63.9325   83.6379    9.3338 H       1  UNL1        0.1437
     24 C          62.4689   82.5468   15.1645 C.3     1  UNL1        0.0067
     25 C          61.6283   82.4014   13.9307 C.3     1  UNL1        0.0460
     26 C          64.1746   90.2708   13.9685 C.ar    1  UNL1        0.0264
     27 C          63.5212   90.5939   15.2795 C.ar    1  UNL1        0.0293
     28 C          64.0807   91.6810   16.1486 C.ar    1  UNL1        0.1422
     29 F          63.4272   92.0040   17.4596 F       1  UNL1       -0.2041
     30 C          65.2935   92.4450   15.7068 C.ar    1  UNL1        0.0592
     31 C          65.9469   92.1219   14.3958 C.ar    1  UNL1        0.1422
     32 F          67.1598   92.8859   13.9539 F       1  UNL1       -0.2041
     33 C          65.3875   91.0349   13.5267 C.ar    1  UNL1        0.0293
     34 C          63.0953   90.3900   12.3750 C.3     1  UNL1        0.0535
     35 C          62.9289   90.3557   10.8846 C.3     1  UNL1        0.0046
     36 C          65.0177   86.0298   15.0577 C.3     1  UNL1        0.1010
     37 C          64.3039   85.6029   16.3060 C.3     1  UNL1        0.0539
     38 C          62.8074   85.5002   16.3163 C.3     1  UNL1        0.1440
     39 O          62.0279   86.0212   17.4872 O.3     1  UNL1       -0.3510
     40 C          62.7117   86.8484   18.5351 C.3     1  UNL1        0.1741
@<TRIPOS>BOND
     1    24    25    1
     2    25    12    1
     3    12    13   ar
     4    13    14   ar
     5    14    15    1
     6    14    16   ar
     7    16    17   ar
     8    17    18    1
     9    17    19   ar
    10    19     1    1
    11     1     2   ar
    12     2     3   ar
    13     3     4   ar
    14     4     5   ar
    15     5     6   ar
    16     5     7    1
    17     7    36    1
    18    36    37    1
    19    37    38    1
    20    38    39    1
    21    39    40    1
    22     7     8   am
    23     8     9    2
    24     8    10    1
    25    10    34    1
    26    34    35    1
    27    10    26    1
    28    26    27   ar
    29    27    28   ar
    30    28    29    1
    31    28    30   ar
    32    30    31   ar
    33    31    32    1
    34    31    33   ar
    35    10    11    1
    36    19    12   ar
    37     6     1   ar
    38    33    26   ar
    39    11     4    1
    40    15    20    1
    41    15    21    1
    42    18    22    1
    43    18    23    1
@<TRIPOS>MOLECULE
*****
 40 43 0 0 0
SMALL
GASTEIGER

@<TRIPOS>ATOM
      1 C          63.7145   89.1155   13.7559 C.ar    1  UNL1        0.0053
      2 C          63.1407   89.3869   12.3969 C.ar    1  UNL1        0.0033
      3 C          62.7702   88.2450   11.4976 C.ar    1  UNL1        0.0382
      4 C          62.9735   86.8317   11.9573 C.ar    1  UNL1        0.1529
      5 C          63.5473   86.5603   13.3163 C.ar    1  UNL1        0.0881
      6 C          63.9178   87.7022   14.2156 C.ar    1  UNL1        0.0181
      7 N          63.7507   85.1471   13.7761 N.am    1  UNL1       -0.2528
      8 C          63.3802   84.0052   12.8768 C.2     1  UNL1        0.2697
      9 O          63.5835   82.5919   13.3365 O.2     1  UNL1       -0.2704
     10 C          62.8063   84.2766   11.5176 C.3     1  UNL1        0.2197
     11 O          62.6030   85.6898   11.0579 O.3     1  UNL1       -0.4686
     12 C          65.0829   91.2795   14.1974 C.ar    1  UNL1        0.0645
     13 N          65.4534   92.4213   15.0967 N.ar    1  UNL1       -0.2183
     14 C          64.8261   92.5412   16.4540 C.ar    1  UNL1        0.2145
     15 N          65.1967   93.6830   17.3533 N.pl3   1  UNL1       -0.3274
     16 N          63.8283   91.5191   16.9119 N.ar    1  UNL1       -0.1995
     17 C          63.4578   90.3772   16.0125 C.ar    1  UNL1        0.1293
     18 N          62.4600   89.3551   16.4704 N.pl3   1  UNL1       -0.3425
     19 C          64.0851   90.2574   14.6553 C.ar    1  UNL1        0.0449
     20 H          65.8516   94.3538   17.0527 H       1  UNL1        0.1452
     21 H          64.7850   93.7617   18.2441 H       1  UNL1        0.1452
     22 H          62.0483   89.4337   17.3613 H       1  UNL1        0.1437
     23 H          62.2168   88.6056   15.8802 H       1  UNL1        0.1437
     24 C          65.5463   92.2638   11.8380 C.3     1  UNL1        0.0067
     25 C          65.7102   91.1597   12.8401 C.3     1  UNL1        0.0460
     26 C          62.8109   82.7767   11.5037 C.ar    1  UNL1        0.0264
     27 C          63.3954   82.0393   10.3356 C.ar    1  UNL1        0.0293
     28 C          63.4000   80.5393   10.3217 C.ar    1  UNL1        0.1422
     29 F          63.9846   79.8019    9.1534 F       1  UNL1       -0.2041
     30 C          62.8201   79.7768   11.4758 C.ar    1  UNL1        0.0592
     31 C          62.2356   80.5142   12.6439 C.ar    1  UNL1        0.1422
     32 F          61.6556   79.7516   13.7981 F       1  UNL1       -0.2041
     33 C          62.2309   82.0141   12.6579 C.ar    1  UNL1        0.0293
     34 C          62.2341   84.0270   10.1537 C.3     1  UNL1        0.0535
     35 C          62.4923   85.0009    9.0424 C.3     1  UNL1        0.0046
     36 C          64.3245   84.8757   15.1351 C.3     1  UNL1        0.1010
     37 C          63.4239   84.4587   16.2599 C.3     1  UNL1        0.0539
     38 C          62.0328   85.0125   16.3516 C.3     1  UNL1        0.1440
     39 O          61.7670   86.2407   17.1706 O.3     1  UNL1       -0.3510
     40 C          62.6992   86.6158   18.2842 C.3     1  UNL1        0.1741
@<TRIPOS>BOND
     1    24    25    1
     2    25    12    1
     3    12    13   ar
     4    13    14   ar
     5    14    15    1
     6    14    16   ar
     7    16    17   ar
     8    17    18    1
     9    17    19   ar
    10    19     1    1
    11     1     2   ar
    12     2     3   ar
    13     3     4   ar
    14     4     5   ar
    15     5     6   ar
    16     5     7    1
    17     7    36    1
    18    36    37    1
    19    37    38    1
    20    38    39    1
    21    39    40    1
    22     7     8   am
    23     8     9    2
    24     8    10    1
    25    10    34    1
    26    34    35    1
    27    10    26    1
    28    26    27   ar
    29    27    28   ar
    30    28    29    1
    31    28    30   ar
    32    30    31   ar
    33    31    32    1
    34    31    33   ar
    35    10    11    1
    36    19    12   ar
    37     6     1   ar
    38    33    26   ar
    39    11     4    1
    40    15    20    1
    41    15    21    1
    42    18    22    1
    43    18    23    1
@<TRIPOS>MOLECULE
*****
 40 43 0 0 0
SMALL
GASTEIGER

@<TRIPOS>ATOM
      1 C          64.6819   90.1116   13.7609 C.ar    1  UNL1        0.0053
      2 C          63.7124   90.4255   12.6602 C.ar    1  UNL1        0.0033
      3 C          62.9663   89.3167   11.9792 C.ar    1  UNL1        0.0382
      4 C          63.1896   87.8941   12.3989 C.ar    1  UNL1        0.1529
      5 C          64.1590   87.5802   13.4996 C.ar    1  UNL1        0.0881
      6 C          64.9052   88.6889   14.1806 C.ar    1  UNL1        0.0181
      7 N          64.3823   86.1575   13.9193 N.am    1  UNL1       -0.2528
      8 C          63.6362   85.0487   13.2382 C.2     1  UNL1        0.2697
      9 O          63.8595   83.6260   13.6579 O.2     1  UNL1       -0.2704
     10 C          62.6667   85.3626   12.1375 C.3     1  UNL1        0.2197
     11 O          62.4434   86.7853   11.7178 O.3     1  UNL1       -0.4686
     12 C          64.9168   91.7854   15.7340 C.ar    1  UNL1        0.0645
     13 N          65.6629   92.8942   16.4151 N.ar    1  UNL1       -0.2183
     14 C          66.9204   93.4380   15.8042 C.ar    1  UNL1        0.2145
     15 N          67.6665   94.5467   16.4853 N.pl3   1  UNL1       -0.3274
     16 N          67.4317   92.8729   14.5122 N.ar    1  UNL1       -0.1995
     17 C          66.6855   91.7641   13.8311 C.ar    1  UNL1        0.1293
     18 N          67.1967   91.1991   12.5390 N.pl3   1  UNL1       -0.3425
     19 C          65.4281   91.2204   14.4420 C.ar    1  UNL1        0.0449
     20 H          67.3310   94.9175   17.3333 H       1  UNL1        0.1452
     21 H          68.4918   94.9036   16.0843 H       1  UNL1        0.1452
     22 H          68.0220   91.5559   12.1381 H       1  UNL1        0.1437
     23 H          66.7070   90.4714   12.0920 H       1  UNL1        0.1437
     24 C          63.5684   89.7886   16.7058 C.3     1  UNL1        0.0067
     25 C          63.6593   91.2417   16.3450 C.3     1  UNL1        0.0460
     26 C          62.5377   83.8688   12.1800 C.ar    1  UNL1        0.0264
     27 C          63.0688   83.0377   11.0499 C.ar    1  UNL1        0.0293
     28 C          62.9398   81.5438   11.0925 C.ar    1  UNL1        0.1422
     29 F          63.4710   80.7127    9.9622 F       1  UNL1       -0.2041
     30 C          62.2799   80.8811   12.2650 C.ar    1  UNL1        0.0592
     31 C          61.7488   81.7122   13.3952 C.ar    1  UNL1        0.1422
     32 F          61.0888   81.0494   14.5679 F       1  UNL1       -0.2041
     33 C          61.8777   83.2060   13.3527 C.ar    1  UNL1        0.0293
     34 C          61.6524   85.1577   11.0515 C.3     1  UNL1        0.0535
     35 C          61.5539   86.1401    9.9222 C.3     1  UNL1        0.0046
     36 C          65.3517   85.8436   15.0200 C.3     1  UNL1        0.1010
     37 C          64.8602   85.2432   16.3037 C.3     1  UNL1        0.0539
     38 C          63.3886   85.1803   16.5872 C.3     1  UNL1        0.1440
     39 O          62.6445   86.4254   16.9692 O.3     1  UNL1       -0.3510
     40 C          62.6007   86.8627   18.4033 C.3     1  UNL1        0.1741
@<TRIPOS>BOND
     1    24    25    1
     2    25    12    1
     3    12    13   ar
     4    13    14   ar
     5    14    15    1
     6    14    16   ar
     7    16    17   ar
     8    17    18    1
     9    17    19   ar
    10    19     1    1
    11     1     2   ar
    12     2     3   ar
    13     3     4   ar
    14     4     5   ar
    15     5     6   ar
    16     5     7    1
    17     7    36    1
    18    36    37    1
    19    37    38    1
    20    38    39    1
    21    39    40    1
    22     7     8   am
    23     8     9    2
    24     8    10    1
    25    10    34    1
    26    34    35    1
    27    10    26    1
    28    26    27   ar
    29    27    28   ar
    30    28    29    1
    31    28    30   ar
    32    30    31   ar
    33    31    32    1
    34    31    33   ar
    35    10    11    1
    36    19    12   ar
    37     6     1   ar
    38    33    26   ar
    39    11     4    1
    40    15    20    1
    41    15    21    1
    42    18    22    1
    43    18    23    1
