@<TRIPOS>MOLECULE
*****
 62 67 0 0 0
SMALL
GASTEIGER

@<TRIPOS>ATOM
      1 C          63.6750   83.8811   12.6164 C.3     1  UNL1        0.0270
      2 C          63.4756   82.7114   11.6987 C.3     1  UNL1        0.0021
      3 C          63.0240   82.0084   10.4530 C.3     1  UNL1        0.0004
      4 C          63.4429   80.5937   10.7239 C.3     1  UNL1        0.0000
      5 C          62.3982   81.8936    9.0946 C.3     1  UNL1        0.0047
      6 C          61.7064   82.3869    7.8585 C.3     1  UNL1        0.0257
      7 C          61.0682   83.4029    6.9582 C.2     1  UNL1       -0.0306
      8 C          60.5940   84.7661    6.5497 C.2     1  UNL1       -0.0289
      9 C          60.3658   86.2406    6.7034 C.3     1  UNL1        0.0487
     10 C          59.7972   87.4568    6.0344 C.3     1  UNL1        0.0337
     11 C          60.4230   87.5716    7.3927 C.3     1  UNL1        0.1311
     12 N          60.7557   88.5288    8.4986 N.am    1  UNL1       -0.2983
     13 C          61.3064   88.9469    9.8297 C.2     1  UNL1        0.2409
     14 O          61.0112   90.4176    9.8415 O.2     1  UNL1       -0.2733
     15 C          61.9800   88.7534   11.1559 C.3     1  UNL1        0.1555
     16 C          61.8926   90.1875   11.5870 C.3     1  UNL1        0.0746
     17 C          62.5184   90.3024   12.9453 C.3     1  UNL1        0.1894
     18 C          62.9926   88.9392   13.3539 C.3     1  UNL1        0.1373
     19 N          62.6598   87.9819   12.2480 N.am    1  UNL1       -0.2678
     20 C          63.2284   86.7657   12.9170 C.2     1  UNL1        0.2440
     21 O          63.7324   87.3294   14.2125 O.2     1  UNL1       -0.2731
     22 C          63.5875   85.3152   13.0473 C.3     1  UNL1        0.1512
     23 H          60.4116   89.3800    8.1430 H       1  UNL1        0.1498
     24 C          59.9488   88.9347    6.9842 C.2     1  UNL1        0.2567
     25 O          59.3572   89.8604    8.0056 O.2     1  UNL1       -0.2718
     26 N          60.0661   89.3723    5.5542 N.am    1  UNL1       -0.1876
     27 H          60.4543   88.7647    4.8838 H       1  UNL1        0.1762
     28 S          59.5919   90.7354    5.1456 S.O2    1  UNL1        0.0527
     29 O          61.0059   91.1382    4.8485 O.2     1  UNL1       -0.1545
     30 O          58.1778   90.3325    5.4428 O.2     1  UNL1       -0.1545
     31 C          59.1177   92.0986    4.7371 C.3     1  UNL1        0.1288
     32 C          57.6712   91.9969    5.1207 C.3     1  UNL1        0.0255
     33 C          59.1459   93.4970    4.1952 C.3     1  UNL1        0.0255
     34 C          60.3995   92.6736    4.2116 C.3     1  UNL1        0.0255
     35 N          64.2408   85.2756   14.3970 N.am    1  UNL1       -0.2640
     36 C          63.3985   85.2798   15.6383 C.2     1  UNL1        0.4020
     37 O          61.9212   85.3172   15.8950 O.2     1  UNL1       -0.2264
     38 H          65.2223   85.2469   14.4681 H       1  UNL1        0.1532
     39 O          64.0519   85.2402   16.9880 O.3     1  UNL1       -0.4334
     40 C          63.5855   86.1636   18.0742 C.3     1  UNL1        0.2239
     41 C          64.1287   85.2220   19.1078 C.3     1  UNL1        0.0527
     42 C          63.0423   87.1051   17.0406 C.3     1  UNL1        0.0527
     43 C          63.1191   87.0869   19.1605 C.3     1  UNL1        0.4306
     44 F          62.6527   88.0103   20.2467 F       1  UNL1       -0.1665
     45 F          62.9244   88.1778   18.1495 F       1  UNL1       -0.1665
     46 F          63.3139   85.9961   20.1714 F       1  UNL1       -0.1665
     47 C          64.0144   81.8444   14.1933 C.3     1  UNL1        0.0001
     48 C          64.3646   83.2452   13.7869 C.3     1  UNL1        0.0021
     49 O          62.6473   91.5595   13.7532 O.3     1  UNL1       -0.4621
     50 C          63.9657   91.9232   14.3693 C.ar    1  UNL1        0.2247
     51 N          64.0905   92.0398   15.8595 N.ar    1  UNL1       -0.2101
     52 C          65.4088   92.4035   16.4756 C.ar    1  UNL1        0.1021
     53 C          66.6025   92.6505   15.6014 C.ar    1  UNL1        0.0210
     54 C          66.4778   92.5338   14.1113 C.ar    1  UNL1        0.0092
     55 C          67.6715   92.7808   13.2371 C.ar    1  UNL1        0.0394
     56 C          67.5468   92.6641   11.7469 C.ar    1  UNL1        0.1660
     57 C          66.2284   92.3005   11.1308 C.ar    1  UNL1        0.1740
     58 F          66.1037   92.1838    9.6405 F       1  UNL1       -0.2010
     59 C          65.0347   92.0535   12.0049 C.ar    1  UNL1        0.0374
     60 C          65.1594   92.1701   13.4952 C.ar    1  UNL1        0.0557
     61 O          68.7405   92.9111   10.8727 O.3     1  UNL1       -0.4692
     62 C          68.7243   92.4704    9.4391 C.3     1  UNL1        0.2526
@<TRIPOS>BOND
     1    47    48    1
     2     1    48    1
     3     1     2    1
     4     2     3    1
     5     3     4    1
     6     3     5    1
     7     5     6    1
     8     6     7    1
     9     7     8    2
    10     8     9    1
    11     9    10    1
    12    10    11    1
    13    11    24    1
    14    24    25    2
    15    24    26   am
    16    26    28    1
    17    28    29    2
    18    28    30    2
    19    28    31    1
    20    31    32    1
    21    31    33    1
    22    33    34    1
    23    11    12    1
    24    12    13   am
    25    13    14    2
    26    13    15    1
    27    15    16    1
    28    16    17    1
    29    17    49    1
    30    49    50    1
    31    50    51   ar
    32    51    52   ar
    33    52    53   ar
    34    53    54   ar
    35    54    55   ar
    36    55    56   ar
    37    56    61    1
    38    61    62    1
    39    56    57   ar
    40    57    58    1
    41    57    59   ar
    42    59    60   ar
    43    17    18    1
    44    18    19    1
    45    19    20   am
    46    20    21    2
    47    20    22    1
    48    22    35    1
    49    35    36   am
    50    36    37    2
    51    36    39    1
    52    39    40    1
    53    40    41    1
    54    40    42    1
    55    40    43    1
    56    43    44    1
    57    43    45    1
    58    43    46    1
    59    22     1    1
    60    11     9    1
    61    34    31    1
    62    19    15    1
    63    60    50   ar
    64    60    54   ar
    65    26    27    1
    66    12    23    1
    67    35    38    1
@<TRIPOS>MOLECULE
*****
 62 67 0 0 0
SMALL
GASTEIGER

@<TRIPOS>ATOM
      1 C          64.5663   93.0453   10.0678 C.3     1  UNL1        0.0270
      2 C          65.3825   94.2771    9.8096 C.3     1  UNL1        0.0021
      3 C          65.9273   95.4146    8.9977 C.3     1  UNL1        0.0004
      4 C          66.8065   96.1142    9.9916 C.3     1  UNL1        0.0000
      5 C          66.1066   96.2613    7.7726 C.3     1  UNL1        0.0047
      6 C          65.8893   96.6708    6.3460 C.3     1  UNL1        0.0257
      7 C          65.3131   96.5721    4.9646 C.2     1  UNL1       -0.0306
      8 C          64.4775   95.9825    3.8673 C.2     1  UNL1       -0.0289
      9 C          63.5270   95.0038    3.2438 C.3     1  UNL1        0.0487
     10 C          62.8053   94.6520    1.9768 C.3     1  UNL1        0.0337
     11 C          62.6260   93.8053    3.2019 C.3     1  UNL1        0.1311
     12 N          61.9303   92.5942    3.7489 N.am    1  UNL1       -0.2983
     13 C          61.5601   91.5799    4.7901 C.2     1  UNL1        0.2409
     14 O          60.6232   90.6847    4.0344 O.2     1  UNL1       -0.2733
     15 C          61.5796   90.9378    6.1456 C.3     1  UNL1        0.1555
     16 C          60.6331   89.8248    5.8055 C.3     1  UNL1        0.0746
     17 C          60.4539   88.9781    7.0306 C.3     1  UNL1        0.1894
     18 C          61.2895   89.5678    8.1279 C.3     1  UNL1        0.1373
     19 N          61.9852   90.7789    7.5810 N.am    1  UNL1       -0.2678
     20 C          62.7069   91.1308    8.8480 C.2     1  UNL1        0.2440
     21 O          62.2469   90.0488    9.7796 O.2     1  UNL1       -0.2731
     22 C          63.6199   91.9324    9.7276 C.3     1  UNL1        0.1512
     23 H          61.4164   92.2835    2.9687 H       1  UNL1        0.1498
     24 C          61.7904   93.2156    2.1046 C.2     1  UNL1        0.2567
     25 O          62.1118   91.8526    1.5671 O.2     1  UNL1       -0.2718
     26 N          60.6334   93.9890    1.5449 N.am    1  UNL1       -0.1876
     27 H          60.4225   94.8836    1.8977 H       1  UNL1        0.1762
     28 S          59.7978   93.3994    0.4476 S.O2    1  UNL1        0.0527
     29 O          60.6285   94.1202   -0.5724 O.2     1  UNL1       -0.1545
     30 O          58.9671   92.6785    1.4676 O.2     1  UNL1       -0.1545
     31 C          58.9622   92.8097   -0.6497 C.3     1  UNL1        0.1288
     32 C          60.0436   92.3415   -1.5776 C.3     1  UNL1        0.0255
     33 C          57.7510   92.3827   -1.4247 C.3     1  UNL1        0.0255
     34 C          57.5905   93.0732   -0.1028 C.3     1  UNL1        0.0255
     35 N          63.5396   91.1839   11.0250 N.am    1  UNL1       -0.2640
     36 C          62.2046   90.9139   11.6537 C.2     1  UNL1        0.4020
     37 O          60.7898   91.2359   11.2739 O.2     1  UNL1       -0.2264
     38 H          64.3629   90.8699   11.4639 H       1  UNL1        0.1532
     39 O          62.1243   90.1654   12.9511 O.3     1  UNL1       -0.4334
     40 C          63.3807   89.7180   13.6377 C.3     1  UNL1        0.2239
     41 C          63.2814   90.8823   14.5782 C.3     1  UNL1        0.0527
     42 C          63.4800   88.5536   12.6973 C.3     1  UNL1        0.0527
     43 C          64.6370   89.2706   14.3243 C.3     1  UNL1        0.4306
     44 F          65.8934   88.8231   15.0110 F       1  UNL1       -0.1665
     45 F          64.2113   87.8404   14.1713 F       1  UNL1       -0.1665
     46 F          65.0628   90.7007   14.4774 F       1  UNL1       -0.1665
     47 C          66.2698   92.9718   12.0280 C.3     1  UNL1        0.0001
     48 C          64.8795   92.7596   11.5066 C.3     1  UNL1        0.0021
     49 O          59.5906   87.7564    7.1394 O.3     1  UNL1       -0.4621
     50 C          60.2210   86.4031    7.2852 C.ar    1  UNL1        0.2247
     51 N          60.2805   85.4729    6.1101 N.ar    1  UNL1       -0.2101
     52 C          60.9110   84.1196    6.2559 C.ar    1  UNL1        0.1021
     53 C          61.4819   83.6966    7.5769 C.ar    1  UNL1        0.0210
     54 C          61.4224   84.6269    8.7521 C.ar    1  UNL1        0.0092
     55 C          61.9934   84.2039   10.0731 C.ar    1  UNL1        0.0394
     56 C          61.9339   85.1341   11.2483 C.ar    1  UNL1        0.1660
     57 C          61.3035   86.4873   11.1025 C.ar    1  UNL1        0.1740
     58 F          61.2440   87.4177   12.2777 F       1  UNL1       -0.2010
     59 C          60.7325   86.9103    9.7815 C.ar    1  UNL1        0.0374
     60 C          60.7920   85.9801    8.6062 C.ar    1  UNL1        0.0557
     61 O          62.5049   84.7111   12.5693 O.3     1  UNL1       -0.4692
     62 C          63.0793   83.3351   12.7321 C.3     1  UNL1        0.2526
@<TRIPOS>BOND
     1    47    48    1
     2     1    48    1
     3     1     2    1
     4     2     3    1
     5     3     4    1
     6     3     5    1
     7     5     6    1
     8     6     7    1
     9     7     8    2
    10     8     9    1
    11     9    10    1
    12    10    11    1
    13    11    24    1
    14    24    25    2
    15    24    26   am
    16    26    28    1
    17    28    29    2
    18    28    30    2
    19    28    31    1
    20    31    32    1
    21    31    33    1
    22    33    34    1
    23    11    12    1
    24    12    13   am
    25    13    14    2
    26    13    15    1
    27    15    16    1
    28    16    17    1
    29    17    49    1
    30    49    50    1
    31    50    51   ar
    32    51    52   ar
    33    52    53   ar
    34    53    54   ar
    35    54    55   ar
    36    55    56   ar
    37    56    61    1
    38    61    62    1
    39    56    57   ar
    40    57    58    1
    41    57    59   ar
    42    59    60   ar
    43    17    18    1
    44    18    19    1
    45    19    20   am
    46    20    21    2
    47    20    22    1
    48    22    35    1
    49    35    36   am
    50    36    37    2
    51    36    39    1
    52    39    40    1
    53    40    41    1
    54    40    42    1
    55    40    43    1
    56    43    44    1
    57    43    45    1
    58    43    46    1
    59    22     1    1
    60    11     9    1
    61    34    31    1
    62    19    15    1
    63    60    50   ar
    64    60    54   ar
    65    26    27    1
    66    12    23    1
    67    35    38    1
@<TRIPOS>MOLECULE
*****
 62 67 0 0 0
SMALL
GASTEIGER

@<TRIPOS>ATOM
      1 C          63.2991   90.6460   14.0777 C.3     1  UNL1        0.0270
      2 C          63.5829   90.3366   15.5177 C.3     1  UNL1        0.0021
      3 C          63.7574   89.4601   16.7223 C.3     1  UNL1        0.0004
      4 C          64.0929   90.4596   17.7894 C.3     1  UNL1        0.0000
      5 C          63.7925   88.1679   17.4833 C.3     1  UNL1        0.0047
      6 C          63.6820   86.6836   17.6690 C.3     1  UNL1        0.0257
      7 C          63.4450   85.2637   17.2474 C.2     1  UNL1       -0.0306
      8 C          63.1227   84.1538   16.2913 C.2     1  UNL1       -0.0289
      9 C          62.7706   83.5458   14.9660 C.3     1  UNL1        0.0487
     10 C          62.4847   82.2527   14.2617 C.3     1  UNL1        0.0337
     11 C          62.4496   83.5448   13.5008 C.3     1  UNL1        0.1311
     12 N          62.2153   84.1510   12.1489 N.am    1  UNL1       -0.2983
     13 C          62.1082   85.2595   11.1441 C.2     1  UNL1        0.2409
     14 O          61.7578   84.5124    9.8914 O.2     1  UNL1       -0.2733
     15 C          62.1468   86.6788   10.6602 C.3     1  UNL1        0.1555
     16 C          61.8027   86.3676    9.2337 C.3     1  UNL1        0.0746
     17 C          61.7677   87.6597    8.4727 C.3     1  UNL1        0.1894
     18 C          62.0901   88.7696    9.4288 C.3     1  UNL1        0.1373
     19 N          62.3244   88.1634   10.7808 N.am    1  UNL1       -0.2678
     20 C          62.6103   89.4565   11.4851 C.2     1  UNL1        0.2440
     21 O          62.4687   90.4546   10.3742 O.2     1  UNL1       -0.2731
     22 C          62.9551   90.3347   12.6513 C.3     1  UNL1        0.1512
     23 H          62.0146   83.3580   11.6010 H       1  UNL1        0.1498
     24 C          62.1272   82.4349   12.5446 C.2     1  UNL1        0.2567
     25 O          60.7341   82.2880   12.0083 O.2     1  UNL1       -0.2718
     26 N          63.1980   81.4719   12.1248 N.am    1  UNL1       -0.1876
     27 H          64.1123   81.5684   12.4768 H       1  UNL1        0.1762
     28 S          62.8756   80.3620   11.1687 S.O2    1  UNL1        0.0527
     29 O          63.2672   81.2401   10.0173 O.2     1  UNL1       -0.1545
     30 O          62.4839   79.4840   12.3201 O.2     1  UNL1       -0.1545
     31 C          62.5532   79.2522   10.2125 C.3     1  UNL1        0.1288
     32 C          62.1788   80.0529    9.0007 C.3     1  UNL1        0.0255
     33 C          62.3608   77.8641    9.6773 C.3     1  UNL1        0.0255
     34 C          62.8156   78.0660   11.0924 C.3     1  UNL1        0.0255
     35 N          62.9568   91.6979   12.0254 N.am    1  UNL1       -0.2640
     36 C          64.2406   92.2926   11.5269 C.2     1  UNL1        0.4020
     37 O          65.6638   91.8205   11.4934 O.2     1  UNL1       -0.2264
     38 H          62.1155   92.2022   11.9418 H       1  UNL1        0.1532
     39 O          64.2422   93.6558   10.9010 O.3     1  UNL1       -0.4334
     40 C          65.5230   94.2433   10.3868 C.3     1  UNL1        0.2239
     41 C          65.9666   92.8828    9.9372 C.3     1  UNL1        0.0527
     42 C          65.0795   95.6039   10.8364 C.3     1  UNL1        0.0527
     43 C          66.8038   94.8308    9.8726 C.3     1  UNL1        0.4306
     44 F          68.0847   95.4184    9.3584 F       1  UNL1       -0.1665
     45 F          66.5901   96.0448   10.7272 F       1  UNL1       -0.1665
     46 F          67.0176   93.6169    9.0179 F       1  UNL1       -0.1665
     47 C          64.6288   92.7916   14.6927 C.3     1  UNL1        0.0001
     48 C          63.4439   92.1387   14.0449 C.3     1  UNL1        0.0021
     49 O          61.4637   87.8148    7.0121 O.3     1  UNL1       -0.4621
     50 C          60.3352   88.6988    6.5707 C.ar    1  UNL1        0.2247
     51 N          58.9576   88.4904    7.1264 N.ar    1  UNL1       -0.2101
     52 C          57.8291   89.3744    6.6849 C.ar    1  UNL1        0.1021
     53 C          58.0781   90.4669    5.6877 C.ar    1  UNL1        0.0210
     54 C          59.4556   90.6753    5.1320 C.ar    1  UNL1        0.0092
     55 C          59.7047   91.7678    4.1347 C.ar    1  UNL1        0.0394
     56 C          61.0822   91.9763    3.5789 C.ar    1  UNL1        0.1660
     57 C          62.2107   91.0922    4.0204 C.ar    1  UNL1        0.1740
     58 F          63.5884   91.3007    3.4646 F       1  UNL1       -0.2010
     59 C          61.9617   89.9997    5.0176 C.ar    1  UNL1        0.0374
     60 C          60.5842   89.7913    5.5734 C.ar    1  UNL1        0.0557
     61 O          61.3312   93.0687    2.5817 O.3     1  UNL1       -0.4692
     62 C          61.5710   92.7284    1.1406 C.3     1  UNL1        0.2526
@<TRIPOS>BOND
     1    47    48    1
     2     1    48    1
     3     1     2    1
     4     2     3    1
     5     3     4    1
     6     3     5    1
     7     5     6    1
     8     6     7    1
     9     7     8    2
    10     8     9    1
    11     9    10    1
    12    10    11    1
    13    11    24    1
    14    24    25    2
    15    24    26   am
    16    26    28    1
    17    28    29    2
    18    28    30    2
    19    28    31    1
    20    31    32    1
    21    31    33    1
    22    33    34    1
    23    11    12    1
    24    12    13   am
    25    13    14    2
    26    13    15    1
    27    15    16    1
    28    16    17    1
    29    17    49    1
    30    49    50    1
    31    50    51   ar
    32    51    52   ar
    33    52    53   ar
    34    53    54   ar
    35    54    55   ar
    36    55    56   ar
    37    56    61    1
    38    61    62    1
    39    56    57   ar
    40    57    58    1
    41    57    59   ar
    42    59    60   ar
    43    17    18    1
    44    18    19    1
    45    19    20   am
    46    20    21    2
    47    20    22    1
    48    22    35    1
    49    35    36   am
    50    36    37    2
    51    36    39    1
    52    39    40    1
    53    40    41    1
    54    40    42    1
    55    40    43    1
    56    43    44    1
    57    43    45    1
    58    43    46    1
    59    22     1    1
    60    11     9    1
    61    34    31    1
    62    19    15    1
    63    60    50   ar
    64    60    54   ar
    65    26    27    1
    66    12    23    1
    67    35    38    1
@<TRIPOS>MOLECULE
*****
 62 67 0 0 0
SMALL
GASTEIGER

@<TRIPOS>ATOM
      1 C          66.3276   92.5584   13.2752 C.3     1  UNL1        0.0270
      2 C          67.4828   92.2939   14.1947 C.3     1  UNL1        0.0021
      3 C          68.3474   91.4776   15.1090 C.3     1  UNL1        0.0004
      4 C          69.4058   92.4654   15.5018 C.3     1  UNL1        0.0000
      5 C          68.7721   90.2506   15.8599 C.3     1  UNL1        0.0047
      6 C          68.6832   88.8249   16.3178 C.3     1  UNL1        0.0257
      7 C          68.0963   87.4471   16.4032 C.2     1  UNL1       -0.0306
      8 C          67.1127   86.3555   16.1016 C.2     1  UNL1       -0.0289
      9 C          65.9026   85.7388   15.4650 C.3     1  UNL1        0.0487
     10 C          65.0998   84.4766   15.3545 C.3     1  UNL1        0.0337
     11 C          64.6751   85.7037   14.6035 C.3     1  UNL1        0.1311
     12 N          63.6426   86.2561   13.6661 N.am    1  UNL1       -0.2983
     13 C          62.9836   87.3006   12.8149 C.2     1  UNL1        0.2409
     14 O          61.8114   86.5516   12.2537 O.2     1  UNL1       -0.2733
     15 C          62.8120   88.6567   12.1970 C.3     1  UNL1        0.1555
     16 C          61.5659   88.3235   11.4312 C.3     1  UNL1        0.0746
     17 C          61.1413   89.5505   10.6802 C.3     1  UNL1        0.1894
     18 C          62.1248   90.6421   10.9818 C.3     1  UNL1        0.1373
     19 N          63.1574   90.0897   11.9193 N.am    1  UNL1       -0.2678
     20 C          63.9602   91.3519   12.0298 C.2     1  UNL1        0.2440
     21 O          63.1941   92.2875   11.1421 O.2     1  UNL1       -0.2731
     22 C          65.0816   92.2251   12.5094 C.3     1  UNL1        0.1512
     23 H          63.0532   85.4794   13.5301 H       1  UNL1        0.1498
     24 C          63.6915   84.6121   14.3018 C.2     1  UNL1        0.2567
     25 O          62.2311   84.8230   14.5712 O.2     1  UNL1       -0.2718
     26 N          64.1684   83.3096   13.7308 N.am    1  UNL1       -0.1876
     27 H          65.1270   83.1712   13.5540 H       1  UNL1        0.1762
     28 S          63.1848   82.2180   13.4292 S.O2    1  UNL1        0.0527
     29 O          63.1247   81.8694   14.8868 O.2     1  UNL1       -0.1545
     30 O          63.2450   82.5667   11.9714 O.2     1  UNL1       -0.1545
     31 C          62.2012   81.1264   13.1275 C.3     1  UNL1        0.1288
     32 C          62.7468   80.6388   11.8181 C.3     1  UNL1        0.0255
     33 C          61.0282   80.2042   13.2806 C.3     1  UNL1        0.0255
     34 C          61.3141   81.2350   14.3322 C.3     1  UNL1        0.0255
     35 N          64.7818   93.5238   11.8212 N.am    1  UNL1       -0.2640
     36 C          65.4618   93.8615   10.5275 C.2     1  UNL1        0.4020
     37 O          66.4655   93.1577    9.6632 O.2     1  UNL1       -0.2264
     38 H          64.1388   94.1545   12.2186 H       1  UNL1        0.1532
     39 O          65.1620   95.1602    9.8393 O.3     1  UNL1       -0.4334
     40 C          66.1349   95.7253    8.8473 C.3     1  UNL1        0.2239
     41 C          65.1087   96.7295    8.4130 C.3     1  UNL1        0.0527
     42 C          67.1610   94.7211    9.2816 C.3     1  UNL1        0.0527
     43 C          67.1078   96.2904    7.8553 C.3     1  UNL1        0.4306
     44 F          68.0808   96.8556    6.8633 F       1  UNL1       -0.1665
     45 F          68.2487   95.8552    8.7263 F       1  UNL1       -0.1665
     46 F          65.9669   96.7257    6.9842 F       1  UNL1       -0.1665
     47 C          66.9533   94.9866   13.9551 C.3     1  UNL1        0.0001
     48 C          66.5459   93.9956   12.9054 C.3     1  UNL1        0.0021
     49 O          59.9434   89.6658    9.7848 O.3     1  UNL1       -0.4621
     50 C          59.8177   88.7780    8.5824 C.ar    1  UNL1        0.2247
     51 N          58.8532   89.1289    7.4886 N.ar    1  UNL1       -0.2101
     52 C          58.7274   88.2411    6.2861 C.ar    1  UNL1        0.1021
     53 C          59.5662   87.0022    6.1775 C.ar    1  UNL1        0.0210
     54 C          60.5307   86.6513    7.2713 C.ar    1  UNL1        0.0092
     55 C          61.3695   85.4125    7.1626 C.ar    1  UNL1        0.0394
     56 C          62.3340   85.0615    8.2564 C.ar    1  UNL1        0.1660
     57 C          62.4598   85.9494    9.4589 C.ar    1  UNL1        0.1740
     58 F          63.4244   85.5984   10.5528 F       1  UNL1       -0.2010
     59 C          61.6210   87.1882    9.5675 C.ar    1  UNL1        0.0374
     60 C          60.6565   87.5392    8.4737 C.ar    1  UNL1        0.0557
     61 O          63.1728   83.8227    8.1478 O.3     1  UNL1       -0.4692
     62 C          64.0436   83.4035    9.2950 C.3     1  UNL1        0.2526
@<TRIPOS>BOND
     1    47    48    1
     2     1    48    1
     3     1     2    1
     4     2     3    1
     5     3     4    1
     6     3     5    1
     7     5     6    1
     8     6     7    1
     9     7     8    2
    10     8     9    1
    11     9    10    1
    12    10    11    1
    13    11    24    1
    14    24    25    2
    15    24    26   am
    16    26    28    1
    17    28    29    2
    18    28    30    2
    19    28    31    1
    20    31    32    1
    21    31    33    1
    22    33    34    1
    23    11    12    1
    24    12    13   am
    25    13    14    2
    26    13    15    1
    27    15    16    1
    28    16    17    1
    29    17    49    1
    30    49    50    1
    31    50    51   ar
    32    51    52   ar
    33    52    53   ar
    34    53    54   ar
    35    54    55   ar
    36    55    56   ar
    37    56    61    1
    38    61    62    1
    39    56    57   ar
    40    57    58    1
    41    57    59   ar
    42    59    60   ar
    43    17    18    1
    44    18    19    1
    45    19    20   am
    46    20    21    2
    47    20    22    1
    48    22    35    1
    49    35    36   am
    50    36    37    2
    51    36    39    1
    52    39    40    1
    53    40    41    1
    54    40    42    1
    55    40    43    1
    56    43    44    1
    57    43    45    1
    58    43    46    1
    59    22     1    1
    60    11     9    1
    61    34    31    1
    62    19    15    1
    63    60    50   ar
    64    60    54   ar
    65    26    27    1
    66    12    23    1
    67    35    38    1
@<TRIPOS>MOLECULE
*****
 62 67 0 0 0
SMALL
GASTEIGER

@<TRIPOS>ATOM
      1 C          66.1262   94.9883    8.8621 C.3     1  UNL1        0.0270
      2 C          66.2506   95.5775    7.4883 C.3     1  UNL1        0.0021
      3 C          65.9374   95.7305    6.0294 C.3     1  UNL1        0.0004
      4 C          66.8596   96.8433    5.6274 C.3     1  UNL1        0.0000
      5 C          65.2408   95.4209    4.7376 C.3     1  UNL1        0.0047
      6 C          64.2812   94.7020    3.8362 C.3     1  UNL1        0.0257
      7 C          63.2245   93.6984    3.4812 C.2     1  UNL1       -0.0306
      8 C          62.2534   92.5834    3.7339 C.2     1  UNL1       -0.0289
      9 C          61.5359   91.5500    4.5507 C.3     1  UNL1        0.0487
     10 C          60.4994   90.4670    4.4984 C.3     1  UNL1        0.0337
     11 C          61.1960   90.7767    5.7902 C.3     1  UNL1        0.1311
     12 N          61.2924   90.3973    7.2382 N.am    1  UNL1       -0.2983
     13 C          61.8086   90.4773    8.6443 C.2     1  UNL1        0.2409
     14 O          61.0139   89.4056    9.3298 O.2     1  UNL1       -0.2733
     15 C          62.6552   91.0031    9.7654 C.3     1  UNL1        0.1555
     16 C          62.1147   90.0795   10.8166 C.3     1  UNL1        0.0746
     17 C          62.8113   90.3892   12.1084 C.3     1  UNL1        0.1894
     18 C          63.7824   91.5041   11.8557 C.3     1  UNL1        0.1373
     19 N          63.6859   91.8836   10.4076 N.am    1  UNL1       -0.2678
     20 C          64.7225   92.9666   10.4599 C.2     1  UNL1        0.2440
     21 O          65.1394   92.9299   11.9003 O.2     1  UNL1       -0.2731
     22 C          65.5856   94.0648    9.9132 C.3     1  UNL1        0.1512
     23 H          60.6300   89.6720    7.3043 H       1  UNL1        0.1498
     24 C          60.2249   89.6617    6.0429 C.2     1  UNL1        0.2567
     25 O          58.8751   89.6801    5.3889 O.2     1  UNL1       -0.2718
     26 N          60.6036   88.5284    6.9497 N.am    1  UNL1       -0.1876
     27 H          61.4895   88.5163    7.3789 H       1  UNL1        0.1762
     28 S          59.6325   87.4134    7.2024 S.O2    1  UNL1        0.0527
     29 O          60.6894   86.4115    6.8432 O.2     1  UNL1       -0.1545
     30 O          58.5756   88.4155    7.5616 O.2     1  UNL1       -0.1545
     31 C          58.6615   86.2985    7.4551 C.3     1  UNL1        0.1288
     32 C          59.5004   85.1246    7.0452 C.3     1  UNL1        0.0255
     33 C          57.3990   85.5912    7.8502 C.3     1  UNL1        0.0255
     34 C          57.4854   87.0852    7.9528 C.3     1  UNL1        0.0255
     35 N          66.3615   94.4848   11.1263 N.am    1  UNL1       -0.2640
     36 C          67.2622   93.5042   11.8172 C.2     1  UNL1        0.4020
     37 O          67.6175   92.0670   11.5764 O.2     1  UNL1       -0.2264
     38 H          66.2796   95.4040   11.4691 H       1  UNL1        0.1532
     39 O          68.0381   93.9243   13.0303 O.3     1  UNL1       -0.4334
     40 C          67.7332   93.3110   14.3648 C.3     1  UNL1        0.2239
     41 C          69.0901   92.6717   14.3810 C.3     1  UNL1        0.0527
     42 C          66.3764   93.9503   14.3487 C.3     1  UNL1        0.0527
     43 C          67.4284   92.6978   15.6994 C.3     1  UNL1        0.4306
     44 F          67.1235   92.0845   17.0340 F       1  UNL1       -0.1665
     45 F          66.7796   91.5313   15.0152 F       1  UNL1       -0.1665
     46 F          68.0772   93.8643   16.3837 F       1  UNL1       -0.1665
     47 C          67.9306   96.8555    8.9499 C.3     1  UNL1        0.0001
     48 C          67.1268   95.7924    9.6382 C.3     1  UNL1        0.0021
     49 O          62.5779   89.7042   13.4222 O.3     1  UNL1       -0.4621
     50 C          63.3747   88.4863   13.7850 C.ar    1  UNL1        0.2247
     51 N          64.3878   88.5542   14.8890 N.ar    1  UNL1       -0.2101
     52 C          65.1845   87.3363   15.2519 C.ar    1  UNL1        0.1021
     53 C          64.9682   86.0503   14.5106 C.ar    1  UNL1        0.0210
     54 C          63.9551   85.9823   13.4066 C.ar    1  UNL1        0.0092
     55 C          63.7388   84.6963   12.6654 C.ar    1  UNL1        0.0394
     56 C          62.7257   84.6282   11.5613 C.ar    1  UNL1        0.1660
     57 C          61.9289   85.8462   11.1985 C.ar    1  UNL1        0.1740
     58 F          60.9157   85.7782   10.0944 F       1  UNL1       -0.2010
     59 C          62.1452   87.1322   11.9397 C.ar    1  UNL1        0.0374
     60 C          63.1583   87.2002   13.0438 C.ar    1  UNL1        0.0557
     61 O          62.5093   83.3422   10.8201 O.3     1  UNL1       -0.4692
     62 C          62.8506   82.0347   11.4712 C.3     1  UNL1        0.2526
@<TRIPOS>BOND
     1    47    48    1
     2     1    48    1
     3     1     2    1
     4     2     3    1
     5     3     4    1
     6     3     5    1
     7     5     6    1
     8     6     7    1
     9     7     8    2
    10     8     9    1
    11     9    10    1
    12    10    11    1
    13    11    24    1
    14    24    25    2
    15    24    26   am
    16    26    28    1
    17    28    29    2
    18    28    30    2
    19    28    31    1
    20    31    32    1
    21    31    33    1
    22    33    34    1
    23    11    12    1
    24    12    13   am
    25    13    14    2
    26    13    15    1
    27    15    16    1
    28    16    17    1
    29    17    49    1
    30    49    50    1
    31    50    51   ar
    32    51    52   ar
    33    52    53   ar
    34    53    54   ar
    35    54    55   ar
    36    55    56   ar
    37    56    61    1
    38    61    62    1
    39    56    57   ar
    40    57    58    1
    41    57    59   ar
    42    59    60   ar
    43    17    18    1
    44    18    19    1
    45    19    20   am
    46    20    21    2
    47    20    22    1
    48    22    35    1
    49    35    36   am
    50    36    37    2
    51    36    39    1
    52    39    40    1
    53    40    41    1
    54    40    42    1
    55    40    43    1
    56    43    44    1
    57    43    45    1
    58    43    46    1
    59    22     1    1
    60    11     9    1
    61    34    31    1
    62    19    15    1
    63    60    50   ar
    64    60    54   ar
    65    26    27    1
    66    12    23    1
    67    35    38    1
@<TRIPOS>MOLECULE
*****
 62 67 0 0 0
SMALL
GASTEIGER

@<TRIPOS>ATOM
      1 C          62.2141   83.8529   13.1911 C.3     1  UNL1        0.0270
      2 C          62.6205   83.8403   14.6349 C.3     1  UNL1        0.0021
      3 C          63.1204   84.4244   15.9229 C.3     1  UNL1        0.0004
      4 C          63.1036   83.2323   16.8332 C.3     1  UNL1        0.0000
      5 C          63.6273   85.5041   16.8323 C.3     1  UNL1        0.0047
      6 C          64.0536   86.8929   17.2060 C.3     1  UNL1        0.0257
      7 C          64.3255   88.3505   16.9794 C.2     1  UNL1       -0.0306
      8 C          64.3961   89.6249   16.1914 C.2     1  UNL1       -0.0289
      9 C          64.2530   90.4959   14.9786 C.3     1  UNL1        0.0487
     10 C          64.4281   91.8924   14.4600 C.3     1  UNL1        0.0337
     11 C          63.9212   90.8127   13.5505 C.3     1  UNL1        0.1311
     12 N          63.4578   90.5205   12.1541 N.am    1  UNL1       -0.2983
     13 C          62.9432   89.6701   11.0308 C.2     1  UNL1        0.2409
     14 O          62.8526   90.6593    9.9068 O.2     1  UNL1       -0.2733
     15 C          62.4662   88.4082   10.3749 C.3     1  UNL1        0.1555
     16 C          62.2234   89.0153    9.0248 C.3     1  UNL1        0.0746
     17 C          61.7165   87.9356    8.1154 C.3     1  UNL1        0.1894
     18 C          61.6460   86.6611    8.9033 C.3     1  UNL1        0.1373
     19 N          62.1093   86.9532   10.2998 N.am    1  UNL1       -0.2678
     20 C          61.9343   85.5567   10.8184 C.2     1  UNL1        0.2440
     21 O          61.4242   84.8355    9.6060 O.2     1  UNL1       -0.2731
     22 C          61.9713   84.4600   11.8411 C.3     1  UNL1        0.1512
     23 H          63.5389   91.4019   11.7230 H       1  UNL1        0.1498
     24 C          63.9917   92.0871   12.7626 C.2     1  UNL1        0.2567
     25 O          62.7302   92.7518   12.2971 O.2     1  UNL1       -0.2718
     26 N          65.3237   92.6968   12.4402 N.am    1  UNL1       -0.1876
     27 H          66.1517   92.2605   12.7457 H       1  UNL1        0.1762
     28 S          65.3942   93.9712   11.6523 S.O2    1  UNL1        0.0527
     29 O          65.8722   94.6997   12.8733 O.2     1  UNL1       -0.1545
     30 O          64.9163   93.2427   10.4312 O.2     1  UNL1       -0.1545
     31 C          65.4648   95.2457   10.8643 C.3     1  UNL1        0.1288
     32 C          66.1783   96.1223   11.8504 C.3     1  UNL1        0.0255
     33 C          65.2875   96.2157    9.7340 C.3     1  UNL1        0.0255
     34 C          64.7757   94.8116    9.6047 C.3     1  UNL1        0.0255
     35 N          61.4766   83.2828   11.0541 N.am    1  UNL1       -0.2640
     36 C          62.4528   82.2891   10.4973 C.2     1  UNL1        0.4020
     37 O          63.9471   82.1641   10.5330 O.2     1  UNL1       -0.2264
     38 H          60.5113   83.1622   10.9030 H       1  UNL1        0.1532
     39 O          61.9580   81.1119    9.7103 O.3     1  UNL1       -0.4334
     40 C          62.5248   79.7469    9.9665 C.3     1  UNL1        0.2239
     41 C          62.3338   79.3962    8.5206 C.3     1  UNL1        0.0527
     42 C          62.7158   80.0976   11.4124 C.3     1  UNL1        0.0527
     43 C          63.0915   78.3820   10.2227 C.3     1  UNL1        0.4306
     44 F          63.6583   77.0169   10.4789 F       1  UNL1       -0.1665
     45 F          63.5522   78.3057    8.7973 F       1  UNL1       -0.1665
     46 F          62.6309   78.4582   11.6481 F       1  UNL1       -0.1665
     47 C          62.2183   81.3702   13.9568 C.3     1  UNL1        0.0001
     48 C          61.8203   82.4232   12.9654 C.3     1  UNL1        0.0021
     49 O          61.3453   88.1012    6.6716 O.3     1  UNL1       -0.4621
     50 C          60.2549   89.0548    6.2821 C.ar    1  UNL1        0.2247
     51 N          58.8857   88.9121    6.8775 N.ar    1  UNL1       -0.2101
     52 C          57.7953   89.8657    6.4880 C.ar    1  UNL1        0.1021
     53 C          58.0743   90.9621    5.5031 C.ar    1  UNL1        0.0210
     54 C          59.4436   91.1048    4.9077 C.ar    1  UNL1        0.0092
     55 C          59.7225   92.2013    3.9227 C.ar    1  UNL1        0.0394
     56 C          61.0918   92.3440    3.3273 C.ar    1  UNL1        0.1660
     57 C          62.1822   91.3904    3.7167 C.ar    1  UNL1        0.1740
     58 F          63.5516   91.5332    3.1213 F       1  UNL1       -0.2010
     59 C          61.9032   90.2940    4.7017 C.ar    1  UNL1        0.0374
     60 C          60.5339   90.1512    5.2972 C.ar    1  UNL1        0.0557
     61 O          61.3708   93.4405    2.3423 O.3     1  UNL1       -0.4692
     62 C          61.2945   93.1634    0.8701 C.3     1  UNL1        0.2526
@<TRIPOS>BOND
     1    47    48    1
     2     1    48    1
     3     1     2    1
     4     2     3    1
     5     3     4    1
     6     3     5    1
     7     5     6    1
     8     6     7    1
     9     7     8    2
    10     8     9    1
    11     9    10    1
    12    10    11    1
    13    11    24    1
    14    24    25    2
    15    24    26   am
    16    26    28    1
    17    28    29    2
    18    28    30    2
    19    28    31    1
    20    31    32    1
    21    31    33    1
    22    33    34    1
    23    11    12    1
    24    12    13   am
    25    13    14    2
    26    13    15    1
    27    15    16    1
    28    16    17    1
    29    17    49    1
    30    49    50    1
    31    50    51   ar
    32    51    52   ar
    33    52    53   ar
    34    53    54   ar
    35    54    55   ar
    36    55    56   ar
    37    56    61    1
    38    61    62    1
    39    56    57   ar
    40    57    58    1
    41    57    59   ar
    42    59    60   ar
    43    17    18    1
    44    18    19    1
    45    19    20   am
    46    20    21    2
    47    20    22    1
    48    22    35    1
    49    35    36   am
    50    36    37    2
    51    36    39    1
    52    39    40    1
    53    40    41    1
    54    40    42    1
    55    40    43    1
    56    43    44    1
    57    43    45    1
    58    43    46    1
    59    22     1    1
    60    11     9    1
    61    34    31    1
    62    19    15    1
    63    60    50   ar
    64    60    54   ar
    65    26    27    1
    66    12    23    1
    67    35    38    1
