@<TRIPOS>MOLECULE
*****
 38 41 0 0 0
SMALL
GASTEIGER

@<TRIPOS>ATOM
      1 C          63.6353   85.9130   14.8130 C.ar    1  UNL1        0.0702
      2 C          63.0130   84.8748   15.6988 C.ar    1  UNL1        0.1687
      3 N          62.4268   85.2710   17.0214 N.ar    1  UNL1       -0.1421
      4 N          62.4629   86.7055   17.4582 N.ar    1  UNL1       -0.1478
      5 C          63.0853   87.7439   16.5724 C.ar    1  UNL1        0.1041
      6 C          63.1214   89.1784   17.0092 C.ar    1  UNL1        0.0209
      7 C          63.7437   90.2166   16.1234 C.ar    1  UNL1        0.0017
      8 C          64.3299   89.8204   14.8008 C.ar    1  UNL1        0.0016
      9 C          64.2938   88.3859   14.3640 C.ar    1  UNL1        0.0029
     10 C          63.6715   87.3476   15.2498 C.ar    1  UNL1        0.0342
     11 C          64.9523   90.8587   13.9150 C.ar    1  UNL1        0.0194
     12 C          64.2347   91.3197   12.6812 C.ar    1  UNL1        0.0063
     13 C          64.8570   92.3581   11.7953 C.ar    1  UNL1        0.0577
     14 C          66.1970   92.9353   12.1435 C.ar    1  UNL1        0.2249
     15 N          66.9147   92.4743   13.3774 N.ar    1  UNL1       -0.2101
     16 C          66.2923   91.4360   14.2631 C.ar    1  UNL1        0.1020
     17 O          66.8194   93.9736   11.2577 O.3     1  UNL1       -0.4602
     18 C          67.2355   93.6166    9.8615 C.3     1  UNL1        0.2085
     19 C          67.7914   94.6717    8.9516 C.3     1  UNL1        0.0647
     20 C          67.3730   96.1024    9.1185 C.3     1  UNL1        0.0760
     21 N          65.9790   96.5230    8.7583 N.3     1  UNL1       -0.2702
     22 C          64.9387   96.6672    9.8293 C.3     1  UNL1        0.0897
     23 C          65.6253   96.7994    7.3270 C.3     1  UNL1        0.0897
     24 C          62.9769   83.4402   15.2619 C.2     1  UNL1        0.2635
     25 N          64.2264   82.6115   15.3046 N.am    1  UNL1       -0.3240
     26 O          61.6911   82.8344   14.7825 O.2     1  UNL1       -0.2686
     27 H          65.0703   83.0091   15.6192 H       1  UNL1        0.1453
     28 H          64.2027   81.6700   15.0179 H       1  UNL1        0.1453
     29 N          64.2216   85.5168   13.4903 N.pl3   1  UNL1       -0.3327
     30 H          65.1986   85.4951   13.3716 H       1  UNL1        0.1468
     31 C          63.2091   83.7250   11.9046 C.3     1  UNL1        0.0212
     32 C          63.3190   85.1535   12.3486 C.3     1  UNL1        0.0692
     33 C          62.5265   86.2189   11.6508 C.3     1  UNL1        0.0229
     34 C          61.3368   85.8441   10.8177 C.3     1  UNL1        0.0338
     35 C          60.5442   86.9095   10.1199 C.3     1  UNL1        0.1422
     36 O          60.9413   88.3496   10.2553 O.3     1  UNL1       -0.3538
     37 C          62.1310   88.7244   11.0885 C.3     1  UNL1        0.1422
     38 C          62.9236   87.6590   11.7862 C.3     1  UNL1        0.0338
@<TRIPOS>BOND
     1    32    31    1
     2    32    29    1
     3    29     1    1
     4     1     2   ar
     5     2    24    1
     6    24    25   am
     7    24    26    2
     8     2     3   ar
     9     3     4   ar
    10     4     5   ar
    11     5     6   ar
    12     6     7   ar
    13     7     8   ar
    14     8    11    1
    15    11    12   ar
    16    12    13   ar
    17    13    14   ar
    18    14    17    1
    19    17    18    1
    20    18    19    1
    21    19    20    1
    22    20    21    1
    23    21    22    1
    24    21    23    1
    25    14    15   ar
    26    15    16   ar
    27     8     9   ar
    28     9    10   ar
    29    32    33    1
    30    33    34    1
    31    34    35    1
    32    35    36    1
    33    36    37    1
    34    37    38    1
    35    10     1   ar
    36    38    33    1
    37    10     5   ar
    38    16    11   ar
    39    29    30    1
    40    25    27    1
    41    25    28    1
@<TRIPOS>MOLECULE
*****
 38 41 0 0 0
SMALL
GASTEIGER

@<TRIPOS>ATOM
      1 C          63.5852   85.4495   14.6319 C.ar    1  UNL1        0.0702
      2 C          62.9840   84.2671   15.3322 C.ar    1  UNL1        0.1687
      3 N          62.3780   84.4307   16.6946 N.ar    1  UNL1       -0.1421
      4 N          62.3732   85.7766   17.3567 N.ar    1  UNL1       -0.1478
      5 C          62.9745   86.9591   16.6564 C.ar    1  UNL1        0.1041
      6 C          62.9697   88.3050   17.3185 C.ar    1  UNL1        0.0209
      7 C          63.5709   89.4874   16.6182 C.ar    1  UNL1        0.0017
      8 C          64.1769   89.3239   15.2558 C.ar    1  UNL1        0.0016
      9 C          64.1817   87.9779   14.5938 C.ar    1  UNL1        0.0029
     10 C          63.5805   86.7956   15.2940 C.ar    1  UNL1        0.0342
     11 C          64.7782   90.5064   14.5556 C.ar    1  UNL1        0.0194
     12 C          66.1083   91.0421   14.9957 C.ar    1  UNL1        0.0063
     13 C          66.7095   92.2246   14.2954 C.ar    1  UNL1        0.0577
     14 C          65.9806   92.8713   13.1550 C.ar    1  UNL1        0.2249
     15 N          64.6505   92.3354   12.7149 N.ar    1  UNL1       -0.2101
     16 C          64.0493   91.1530   13.4151 C.ar    1  UNL1        0.1020
     17 O          66.5818   94.0537   12.4548 O.3     1  UNL1       -0.4602
     18 C          65.9523   94.5820   11.1999 C.3     1  UNL1        0.2085
     19 C          66.1993   93.8943    9.8899 C.3     1  UNL1        0.0647
     20 C          67.5912   93.8121    9.3367 C.3     1  UNL1        0.0760
     21 N          68.3497   92.5198    9.4036 N.3     1  UNL1       -0.2702
     22 C          69.1225   92.0411    8.2104 C.3     1  UNL1        0.0897
     23 C          68.3355   91.7061   10.6637 C.3     1  UNL1        0.0897
     24 C          62.9888   82.9211   14.6701 C.2     1  UNL1        0.2635
     25 N          61.7111   82.1469   14.5357 N.am    1  UNL1       -0.3240
     26 O          64.2712   82.3494   14.1425 O.2     1  UNL1       -0.2686
     27 H          60.8694   82.5221   14.8821 H       1  UNL1        0.1453
     28 H          61.7142   81.2635   14.1012 H       1  UNL1        0.1453
     29 N          64.1912   85.2860   13.2696 N.pl3   1  UNL1       -0.3327
     30 H          65.1700   85.2778   13.1640 H       1  UNL1        0.1468
     31 C          63.2154   83.8133   11.3646 C.3     1  UNL1        0.0212
     32 C          63.3059   85.1349   12.0681 C.3     1  UNL1        0.0692
     33 C          62.5111   86.3056   11.5703 C.3     1  UNL1        0.0229
     34 C          61.2516   86.0787   10.7879 C.3     1  UNL1        0.0338
     35 C          60.4567   87.2493   10.2900 C.3     1  UNL1        0.1422
     36 O          60.9214   88.6468   10.5746 O.3     1  UNL1       -0.3538
     37 C          62.1809   88.8738   11.3570 C.3     1  UNL1        0.1422
     38 C          62.9757   87.7031   11.8549 C.3     1  UNL1        0.0338
@<TRIPOS>BOND
     1    32    31    1
     2    32    29    1
     3    29     1    1
     4     1     2   ar
     5     2    24    1
     6    24    25   am
     7    24    26    2
     8     2     3   ar
     9     3     4   ar
    10     4     5   ar
    11     5     6   ar
    12     6     7   ar
    13     7     8   ar
    14     8    11    1
    15    11    12   ar
    16    12    13   ar
    17    13    14   ar
    18    14    17    1
    19    17    18    1
    20    18    19    1
    21    19    20    1
    22    20    21    1
    23    21    22    1
    24    21    23    1
    25    14    15   ar
    26    15    16   ar
    27     8     9   ar
    28     9    10   ar
    29    32    33    1
    30    33    34    1
    31    34    35    1
    32    35    36    1
    33    36    37    1
    34    37    38    1
    35    10     1   ar
    36    38    33    1
    37    10     5   ar
    38    16    11   ar
    39    29    30    1
    40    25    27    1
    41    25    28    1
@<TRIPOS>MOLECULE
*****
 38 41 0 0 0
SMALL
GASTEIGER

@<TRIPOS>ATOM
      1 C          66.5834   92.0956   14.2700 C.ar    1  UNL1        0.0702
      2 C          67.2167   92.7309   15.4722 C.ar    1  UNL1        0.1687
      3 N          66.5289   92.6678   16.8037 N.ar    1  UNL1       -0.1421
      4 N          65.2077   91.9693   16.9330 N.ar    1  UNL1       -0.1478
      5 C          64.5744   91.3340   15.7308 C.ar    1  UNL1        0.1041
      6 C          63.2532   90.6356   15.8601 C.ar    1  UNL1        0.0209
      7 C          62.6199   90.0003   14.6579 C.ar    1  UNL1        0.0017
      8 C          63.3078   90.0634   13.3264 C.ar    1  UNL1        0.0016
      9 C          64.6289   90.7619   13.1971 C.ar    1  UNL1        0.0029
     10 C          65.2622   91.3971   14.3993 C.ar    1  UNL1        0.0342
     11 C          62.6744   89.4281   12.1242 C.ar    1  UNL1        0.0194
     12 C          62.8243   87.9544   11.8882 C.ar    1  UNL1        0.0063
     13 C          62.1909   87.3191   10.6860 C.ar    1  UNL1        0.0577
     14 C          61.4077   88.1575    9.7198 C.ar    1  UNL1        0.2249
     15 N          61.2578   89.6313    9.9558 N.ar    1  UNL1       -0.2101
     16 C          61.8912   90.2665   11.1580 C.ar    1  UNL1        0.1020
     17 O          60.7744   87.5222    8.5176 O.3     1  UNL1       -0.4602
     18 C          59.5480   88.1318    7.9059 C.3     1  UNL1        0.2085
     19 C          59.6711   89.3358    7.0196 C.3     1  UNL1        0.0647
     20 C          58.5154   89.7564    6.1609 C.3     1  UNL1        0.0760
     21 N          58.6319   90.9715    5.2892 N.3     1  UNL1       -0.2702
     22 C          59.9834   91.4559    4.8545 C.3     1  UNL1        0.0897
     23 C          57.3970   91.7022    4.8523 C.3     1  UNL1        0.0897
     24 C          68.5379   93.4294   15.3430 C.2     1  UNL1        0.2635
     25 N          68.8025   94.6836   16.1219 N.am    1  UNL1       -0.3240
     26 O          69.5944   92.8736   14.4347 O.2     1  UNL1       -0.2686
     27 H          68.1091   95.0484   16.7180 H       1  UNL1        0.1453
     28 H          69.6697   95.1420   16.0371 H       1  UNL1        0.1453
     29 N          67.2712   92.1588   12.9385 N.pl3   1  UNL1       -0.3327
     30 H          67.9189   91.4618   12.6855 H       1  UNL1        0.1468
     31 C          66.1798   94.4678   12.4618 C.3     1  UNL1        0.0212
     32 C          66.9723   93.2839   11.9926 C.3     1  UNL1        0.0692
     33 C          67.4659   93.2250   10.5773 C.3     1  UNL1        0.0229
     34 C          67.1504   94.3409    9.6259 C.3     1  UNL1        0.0338
     35 C          67.6440   94.2821    8.2107 C.3     1  UNL1        0.1422
     36 O          68.4531   93.1073    7.7469 O.3     1  UNL1       -0.3538
     37 C          68.7687   91.9914    8.6983 C.3     1  UNL1        0.1422
     38 C          68.2751   92.0502   10.1135 C.3     1  UNL1        0.0338
@<TRIPOS>BOND
     1    32    31    1
     2    32    29    1
     3    29     1    1
     4     1     2   ar
     5     2    24    1
     6    24    25   am
     7    24    26    2
     8     2     3   ar
     9     3     4   ar
    10     4     5   ar
    11     5     6   ar
    12     6     7   ar
    13     7     8   ar
    14     8    11    1
    15    11    12   ar
    16    12    13   ar
    17    13    14   ar
    18    14    17    1
    19    17    18    1
    20    18    19    1
    21    19    20    1
    22    20    21    1
    23    21    22    1
    24    21    23    1
    25    14    15   ar
    26    15    16   ar
    27     8     9   ar
    28     9    10   ar
    29    32    33    1
    30    33    34    1
    31    34    35    1
    32    35    36    1
    33    36    37    1
    34    37    38    1
    35    10     1   ar
    36    38    33    1
    37    10     5   ar
    38    16    11   ar
    39    29    30    1
    40    25    27    1
    41    25    28    1
@<TRIPOS>MOLECULE
*****
 38 41 0 0 0
SMALL
GASTEIGER

@<TRIPOS>ATOM
      1 C          65.7590   91.5656   14.4476 C.ar    1  UNL1        0.0702
      2 C          65.9470   92.7544   15.3427 C.ar    1  UNL1        0.1687
      3 N          65.2123   92.8342   16.6480 N.ar    1  UNL1       -0.1421
      4 N          64.2896   91.7250   17.0583 N.ar    1  UNL1       -0.1478
      5 C          64.1016   90.5360   16.1632 C.ar    1  UNL1        0.1041
      6 C          63.1789   89.4269   16.5735 C.ar    1  UNL1        0.0209
      7 C          62.9909   88.2380   15.6784 C.ar    1  UNL1        0.0017
      8 C          63.7256   88.1583   14.3731 C.ar    1  UNL1        0.0016
      9 C          64.6483   89.2674   13.9628 C.ar    1  UNL1        0.0029
     10 C          64.8363   90.4563   14.8579 C.ar    1  UNL1        0.0342
     11 C          63.5376   86.9693   13.4780 C.ar    1  UNL1        0.0194
     12 C          62.7721   87.1094   12.1958 C.ar    1  UNL1        0.0063
     13 C          62.5840   85.9205   11.3007 C.ar    1  UNL1        0.0577
     14 C          63.1616   84.5914   11.6880 C.ar    1  UNL1        0.2249
     15 N          63.9271   84.4513   12.9703 N.ar    1  UNL1       -0.2101
     16 C          64.1151   85.6402   13.8653 C.ar    1  UNL1        0.1020
     17 O          62.9736   83.4024   10.7930 O.3     1  UNL1       -0.4602
     18 C          63.7272   82.1340   11.0629 C.3     1  UNL1        0.2085
     19 C          63.0791   81.0276   11.8413 C.3     1  UNL1        0.0647
     20 C          63.1497   81.0235   13.3396 C.3     1  UNL1        0.0760
     21 N          61.9865   81.5191   14.1466 N.3     1  UNL1       -0.2702
     22 C          60.6786   80.7857   14.1059 C.3     1  UNL1        0.0897
     23 C          62.1310   82.7482   14.9943 C.3     1  UNL1        0.0897
     24 C          66.8697   93.8637   14.9324 C.2     1  UNL1        0.2635
     25 N          68.1398   94.1030   15.6937 N.am    1  UNL1       -0.3240
     26 O          66.5223   94.7336   13.7608 O.2     1  UNL1       -0.2686
     27 H          68.3678   93.5320   16.4626 H       1  UNL1        0.1453
     28 H          68.7454   94.8310   15.4244 H       1  UNL1        0.1453
     29 N          66.4937   91.4858   13.1423 N.pl3   1  UNL1       -0.3327
     30 H          67.3864   91.0725   13.1043 H       1  UNL1        0.1468
     31 C          64.3938   91.8828   11.6648 C.3     1  UNL1        0.0212
     32 C          65.8681   92.0358   11.8947 C.3     1  UNL1        0.0692
     33 C          66.7170   92.7388   10.8772 C.3     1  UNL1        0.0229
     34 C          66.3583   94.1249   10.4300 C.3     1  UNL1        0.0338
     35 C          67.2072   94.8279    9.4125 C.3     1  UNL1        0.1422
     36 O          68.4147   94.1447    8.8422 O.3     1  UNL1       -0.3538
     37 C          68.7734   92.7586    9.2895 C.3     1  UNL1        0.1422
     38 C          67.9245   92.0556   10.3070 C.3     1  UNL1        0.0338
@<TRIPOS>BOND
     1    32    31    1
     2    32    29    1
     3    29     1    1
     4     1     2   ar
     5     2    24    1
     6    24    25   am
     7    24    26    2
     8     2     3   ar
     9     3     4   ar
    10     4     5   ar
    11     5     6   ar
    12     6     7   ar
    13     7     8   ar
    14     8    11    1
    15    11    12   ar
    16    12    13   ar
    17    13    14   ar
    18    14    17    1
    19    17    18    1
    20    18    19    1
    21    19    20    1
    22    20    21    1
    23    21    22    1
    24    21    23    1
    25    14    15   ar
    26    15    16   ar
    27     8     9   ar
    28     9    10   ar
    29    32    33    1
    30    33    34    1
    31    34    35    1
    32    35    36    1
    33    36    37    1
    34    37    38    1
    35    10     1   ar
    36    38    33    1
    37    10     5   ar
    38    16    11   ar
    39    29    30    1
    40    25    27    1
    41    25    28    1
@<TRIPOS>MOLECULE
*****
 38 41 0 0 0
SMALL
GASTEIGER

@<TRIPOS>ATOM
      1 C          62.8522   94.1059   -2.5442 C.ar    1  UNL1        0.0702
      2 C          63.7493   94.7521   -3.5579 C.ar    1  UNL1        0.1687
      3 N          64.9696   95.5009   -3.1105 N.ar    1  UNL1       -0.1421
      4 N          65.2928   95.6036   -1.6494 N.ar    1  UNL1       -0.1478
      5 C          64.3957   94.9574   -0.6356 C.ar    1  UNL1        0.1041
      6 C          64.7189   95.0601    0.8256 C.ar    1  UNL1        0.0209
      7 C          63.8218   94.4140    1.8393 C.ar    1  UNL1        0.0017
      8 C          62.6015   93.6652    1.3919 C.ar    1  UNL1        0.0016
      9 C          62.2783   93.5625   -0.0692 C.ar    1  UNL1        0.0029
     10 C          63.1754   94.2086   -1.0830 C.ar    1  UNL1        0.0342
     11 C          61.7044   93.0190    2.4057 C.ar    1  UNL1        0.0194
     12 C          62.2347   91.9302    3.2907 C.ar    1  UNL1        0.0063
     13 C          61.3376   91.2841    4.3046 C.ar    1  UNL1        0.0577
     14 C          59.9102   91.7268    4.4333 C.ar    1  UNL1        0.2249
     15 N          59.3799   92.8156    3.5482 N.ar    1  UNL1       -0.2101
     16 C          60.2770   93.4617    2.5345 C.ar    1  UNL1        0.1020
     17 O          59.0131   91.0807    5.4471 O.3     1  UNL1       -0.4602
     18 C          59.2423   89.6543    5.8505 C.3     1  UNL1        0.2085
     19 C          59.4882   89.3123    7.2902 C.3     1  UNL1        0.0647
     20 C          59.2581   87.9128    7.7785 C.3     1  UNL1        0.0760
     21 N          60.1774   87.3150    8.8019 N.3     1  UNL1       -0.2702
     22 C          61.1003   86.1962    8.4188 C.3     1  UNL1        0.0897
     23 C          60.1737   87.8358   10.2086 C.3     1  UNL1        0.0897
     24 C          63.4261   94.6494   -5.0191 C.2     1  UNL1        0.2635
     25 N          63.3353   95.8908   -5.8562 N.am    1  UNL1       -0.3240
     26 O          63.1938   93.3053   -5.6432 O.2     1  UNL1       -0.2686
     27 H          63.4879   96.7729   -5.4466 H       1  UNL1        0.1453
     28 H          63.1232   95.8234   -6.8152 H       1  UNL1        0.1453
     29 N          61.6319   93.3571   -2.9916 N.pl3   1  UNL1       -0.3327
     30 H          61.6976   92.4026   -3.2235 H       1  UNL1        0.1468
     31 C          60.2284   95.4163   -3.7264 C.3     1  UNL1        0.0212
     32 C          60.3115   94.0627   -3.0856 C.3     1  UNL1        0.0692
     33 C          59.0743   93.4145   -2.5387 C.3     1  UNL1        0.0229
     34 C          58.7589   93.5151   -1.0757 C.3     1  UNL1        0.0338
     35 C          57.5217   92.8669   -0.5289 C.3     1  UNL1        0.1422
     36 O          56.5997   92.1182   -1.4450 O.3     1  UNL1       -0.3538
     37 C          56.9150   92.0177   -2.9081 C.3     1  UNL1        0.1422
     38 C          58.1523   92.6658   -3.4550 C.3     1  UNL1        0.0338
@<TRIPOS>BOND
     1    32    31    1
     2    32    29    1
     3    29     1    1
     4     1     2   ar
     5     2    24    1
     6    24    25   am
     7    24    26    2
     8     2     3   ar
     9     3     4   ar
    10     4     5   ar
    11     5     6   ar
    12     6     7   ar
    13     7     8   ar
    14     8    11    1
    15    11    12   ar
    16    12    13   ar
    17    13    14   ar
    18    14    17    1
    19    17    18    1
    20    18    19    1
    21    19    20    1
    22    20    21    1
    23    21    22    1
    24    21    23    1
    25    14    15   ar
    26    15    16   ar
    27     8     9   ar
    28     9    10   ar
    29    32    33    1
    30    33    34    1
    31    34    35    1
    32    35    36    1
    33    36    37    1
    34    37    38    1
    35    10     1   ar
    36    38    33    1
    37    10     5   ar
    38    16    11   ar
    39    29    30    1
    40    25    27    1
    41    25    28    1
@<TRIPOS>MOLECULE
*****
 38 41 0 0 0
SMALL
GASTEIGER

@<TRIPOS>ATOM
      1 C          65.3714   92.1321   13.0897 C.ar    1  UNL1        0.0702
      2 C          66.3062   92.3259   14.2466 C.ar    1  UNL1        0.1687
      3 N          66.4278   91.2637   15.2987 N.ar    1  UNL1       -0.1421
      4 N          65.6147   90.0076   15.1938 N.ar    1  UNL1       -0.1478
      5 C          64.6799   89.8137   14.0368 C.ar    1  UNL1        0.1041
      6 C          63.8668   88.5576   13.9319 C.ar    1  UNL1        0.0209
      7 C          62.9320   88.3638   12.7750 C.ar    1  UNL1        0.0017
      8 C          62.8103   89.4260   11.7229 C.ar    1  UNL1        0.0016
      9 C          63.6234   90.6821   11.8278 C.ar    1  UNL1        0.0029
     10 C          64.5582   90.8759   12.9848 C.ar    1  UNL1        0.0342
     11 C          61.8755   89.2321   10.5659 C.ar    1  UNL1        0.0194
     12 C          61.8675   87.9320    9.8179 C.ar    1  UNL1        0.0063
     13 C          60.9327   87.7381    8.6609 C.ar    1  UNL1        0.0577
     14 C          60.0058   88.8444    8.2520 C.ar    1  UNL1        0.2249
     15 N          60.0138   90.1445    9.0002 N.ar    1  UNL1       -0.2101
     16 C          60.9486   90.3384   10.1571 C.ar    1  UNL1        0.1020
     17 O          59.0710   88.6506    7.0951 O.3     1  UNL1       -0.4602
     18 C          58.7037   89.8154    6.2244 C.3     1  UNL1        0.2085
     19 C          59.7527   90.4875    5.3889 C.3     1  UNL1        0.0647
     20 C          59.4263   91.7505    4.6485 C.3     1  UNL1        0.0760
     21 N          60.3668   92.2710    3.6025 N.3     1  UNL1       -0.2702
     22 C          61.8070   91.8514    3.6131 C.3     1  UNL1        0.0897
     23 C          59.8674   93.2111    2.5457 C.3     1  UNL1        0.0897
     24 C          67.1193   93.5821   14.3516 C.2     1  UNL1        0.2635
     25 N          68.4982   93.5359   14.9403 N.am    1  UNL1       -0.3240
     26 O          66.5536   94.8843   13.8678 O.2     1  UNL1       -0.2686
     27 H          68.8695   92.6812   15.2578 H       1  UNL1        0.1453
     28 H          69.0319   94.3603   15.0091 H       1  UNL1        0.1453
     29 N          65.2497   93.1943   12.0377 N.pl3   1  UNL1       -0.3327
     30 H          64.4763   93.8034   12.0403 H       1  UNL1        0.1468
     31 C          67.3835   92.2914   10.8623 C.3     1  UNL1        0.0212
     32 C          66.3065   93.3285   10.9816 C.3     1  UNL1        0.0692
     33 C          66.2862   94.4999   10.0448 C.3     1  UNL1        0.0229
     34 C          65.4047   95.6780   10.3362 C.3     1  UNL1        0.0338
     35 C          65.3844   96.8494    9.3994 C.3     1  UNL1        0.1422
     36 O          66.2456   96.8427    8.1714 O.3     1  UNL1       -0.3538
     37 C          67.1272   95.6645    7.8800 C.3     1  UNL1        0.1422
     38 C          67.1475   94.4931    8.8167 C.3     1  UNL1        0.0338
@<TRIPOS>BOND
     1    32    31    1
     2    32    29    1
     3    29     1    1
     4     1     2   ar
     5     2    24    1
     6    24    25   am
     7    24    26    2
     8     2     3   ar
     9     3     4   ar
    10     4     5   ar
    11     5     6   ar
    12     6     7   ar
    13     7     8   ar
    14     8    11    1
    15    11    12   ar
    16    12    13   ar
    17    13    14   ar
    18    14    17    1
    19    17    18    1
    20    18    19    1
    21    19    20    1
    22    20    21    1
    23    21    22    1
    24    21    23    1
    25    14    15   ar
    26    15    16   ar
    27     8     9   ar
    28     9    10   ar
    29    32    33    1
    30    33    34    1
    31    34    35    1
    32    35    36    1
    33    36    37    1
    34    37    38    1
    35    10     1   ar
    36    38    33    1
    37    10     5   ar
    38    16    11   ar
    39    29    30    1
    40    25    27    1
    41    25    28    1
@<TRIPOS>MOLECULE
*****
 38 41 0 0 0
SMALL
GASTEIGER

@<TRIPOS>ATOM
      1 C          63.3881   84.6388   12.3961 C.ar    1  UNL1        0.0702
      2 C          64.2885   83.5557   12.9120 C.ar    1  UNL1        0.1687
      3 N          64.9036   82.5742   11.9589 N.ar    1  UNL1       -0.1421
      4 N          64.6183   82.6759   10.4898 N.ar    1  UNL1       -0.1478
      5 C          63.7180   83.7590    9.9738 C.ar    1  UNL1        0.1041
      6 C          63.4327   83.8607    8.5047 C.ar    1  UNL1        0.0209
      7 C          62.5324   84.9438    7.9887 C.ar    1  UNL1        0.0017
      8 C          61.9173   85.9252    8.9418 C.ar    1  UNL1        0.0016
      9 C          62.2025   85.8236   10.4109 C.ar    1  UNL1        0.0029
     10 C          63.1029   84.7405   10.9269 C.ar    1  UNL1        0.0342
     11 C          61.0169   87.0083    8.4258 C.ar    1  UNL1        0.0194
     12 C          61.1358   88.4029    8.9653 C.ar    1  UNL1        0.0063
     13 C          60.2354   89.4860    8.4492 C.ar    1  UNL1        0.0577
     14 C          59.2162   89.1745    7.3937 C.ar    1  UNL1        0.2249
     15 N          59.0973   87.7799    6.8542 N.ar    1  UNL1       -0.2101
     16 C          59.9977   86.6969    7.3703 C.ar    1  UNL1        0.1020
     17 O          58.3159   90.2576    6.8777 O.3     1  UNL1       -0.4602
     18 C          58.3960   90.6778    5.4400 C.3     1  UNL1        0.2085
     19 C          59.6135   91.3935    4.9345 C.3     1  UNL1        0.0647
     20 C          59.4635   92.6136    4.0751 C.3     1  UNL1        0.0760
     21 N          60.3200   92.7816    2.8552 N.3     1  UNL1       -0.2702
     22 C          59.7343   93.3604    1.6014 C.3     1  UNL1        0.0897
     23 C          61.7623   92.3709    2.8891 C.3     1  UNL1        0.0897
     24 C          64.5737   83.4540   14.3812 C.2     1  UNL1        0.2635
     25 N          65.9351   83.8010   14.9066 N.am    1  UNL1       -0.3240
     26 O          63.4976   83.0052   15.3248 O.2     1  UNL1       -0.2686
     27 H          66.6414   84.0956   14.2873 H       1  UNL1        0.1453
     28 H          66.1223   83.7343   15.8708 H       1  UNL1        0.1453
     29 N          62.7730   85.6202   13.3492 N.pl3   1  UNL1       -0.3327
     30 H          61.8103   85.5741   13.5500 H       1  UNL1        0.1468
     31 C          64.4399   86.3349   15.2095 C.3     1  UNL1        0.0212
     32 C          63.6248   86.6719   13.9963 C.3     1  UNL1        0.0692
     33 C          63.6613   88.0604   13.4301 C.3     1  UNL1        0.0229
     34 C          63.0029   88.3513   12.1141 C.3     1  UNL1        0.0338
     35 C          63.0395   89.7399   11.5479 C.3     1  UNL1        0.1422
     36 O          63.7343   90.8375   12.2977 O.3     1  UNL1       -0.3538
     37 C          64.3928   90.5467   13.6138 C.3     1  UNL1        0.1422
     38 C          64.3562   89.1581   14.1800 C.3     1  UNL1        0.0338
@<TRIPOS>BOND
     1    32    31    1
     2    32    29    1
     3    29     1    1
     4     1     2   ar
     5     2    24    1
     6    24    25   am
     7    24    26    2
     8     2     3   ar
     9     3     4   ar
    10     4     5   ar
    11     5     6   ar
    12     6     7   ar
    13     7     8   ar
    14     8    11    1
    15    11    12   ar
    16    12    13   ar
    17    13    14   ar
    18    14    17    1
    19    17    18    1
    20    18    19    1
    21    19    20    1
    22    20    21    1
    23    21    22    1
    24    21    23    1
    25    14    15   ar
    26    15    16   ar
    27     8     9   ar
    28     9    10   ar
    29    32    33    1
    30    33    34    1
    31    34    35    1
    32    35    36    1
    33    36    37    1
    34    37    38    1
    35    10     1   ar
    36    38    33    1
    37    10     5   ar
    38    16    11   ar
    39    29    30    1
    40    25    27    1
    41    25    28    1
@<TRIPOS>MOLECULE
*****
 38 41 0 0 0
SMALL
GASTEIGER

@<TRIPOS>ATOM
      1 C          61.9722   86.3347    8.4893 C.ar    1  UNL1        0.0702
      2 C          61.0646   85.8128    7.4152 C.ar    1  UNL1        0.1687
      3 N          59.7359   86.4656    7.1734 N.ar    1  UNL1       -0.1421
      4 N          59.3148   87.6402    8.0057 N.ar    1  UNL1       -0.1478
      5 C          60.2224   88.1621    9.0800 C.ar    1  UNL1        0.1041
      6 C          59.8012   89.3368    9.9123 C.ar    1  UNL1        0.0209
      7 C          60.7088   89.8587   10.9865 C.ar    1  UNL1        0.0017
      8 C          62.0376   89.2059   11.2283 C.ar    1  UNL1        0.0016
      9 C          62.4587   88.0313   10.3959 C.ar    1  UNL1        0.0029
     10 C          61.5511   87.5094    9.3217 C.ar    1  UNL1        0.0342
     11 C          62.9452   89.7279   12.3025 C.ar    1  UNL1        0.0194
     12 C          63.5936   88.7767   13.2641 C.ar    1  UNL1        0.0063
     13 C          64.5012   89.2987   14.3383 C.ar    1  UNL1        0.0577
     14 C          64.7603   90.7719   14.4509 C.ar    1  UNL1        0.2249
     15 N          64.1118   91.7230   13.4892 N.ar    1  UNL1       -0.2101
     16 C          63.2043   91.2011   12.4150 C.ar    1  UNL1        0.1020
     17 O          65.6679   91.2938   15.5250 O.3     1  UNL1       -0.4602
     18 C          66.3355   92.6269   15.3603 C.3     1  UNL1        0.2085
     19 C          67.5503   92.7549   14.4896 C.3     1  UNL1        0.0647
     20 C          67.5656   92.1284   13.1268 C.3     1  UNL1        0.0760
     21 N          67.1041   92.9137   11.9352 N.3     1  UNL1       -0.2702
     22 C          67.4459   92.4470   10.5511 C.3     1  UNL1        0.0897
     23 C          66.3008   94.1658   12.1274 C.3     1  UNL1        0.0897
     24 C          61.4857   84.6382    6.5827 C.2     1  UNL1        0.2635
     25 N          60.4869   83.5796    6.2197 N.am    1  UNL1       -0.3240
     26 O          62.9057   84.5221    6.1133 O.2     1  UNL1       -0.2686
     27 H          59.5550   83.6558    6.5278 H       1  UNL1        0.1453
     28 H          60.7633   82.8086    5.6734 H       1  UNL1        0.1453
     29 N          63.3009   85.6820    8.7311 N.pl3   1  UNL1       -0.3327
     30 H          64.1219   86.0883    8.3702 H       1  UNL1        0.1468
     31 C          63.4718   83.0909    8.8153 C.3     1  UNL1        0.0212
     32 C          63.3788   84.4103    9.5228 C.3     1  UNL1        0.0692
     33 C          63.3637   84.4580   11.0219 C.3     1  UNL1        0.0229
     34 C          64.4369   83.7619   11.8053 C.3     1  UNL1        0.0338
     35 C          64.4218   83.8096   13.3045 C.3     1  UNL1        0.1422
     36 O          63.3335   84.5534   14.0203 O.3     1  UNL1       -0.3538
     37 C          62.2603   85.2496   13.2369 C.3     1  UNL1        0.1422
     38 C          62.2754   85.2019   11.7377 C.3     1  UNL1        0.0338
@<TRIPOS>BOND
     1    32    31    1
     2    32    29    1
     3    29     1    1
     4     1     2   ar
     5     2    24    1
     6    24    25   am
     7    24    26    2
     8     2     3   ar
     9     3     4   ar
    10     4     5   ar
    11     5     6   ar
    12     6     7   ar
    13     7     8   ar
    14     8    11    1
    15    11    12   ar
    16    12    13   ar
    17    13    14   ar
    18    14    17    1
    19    17    18    1
    20    18    19    1
    21    19    20    1
    22    20    21    1
    23    21    22    1
    24    21    23    1
    25    14    15   ar
    26    15    16   ar
    27     8     9   ar
    28     9    10   ar
    29    32    33    1
    30    33    34    1
    31    34    35    1
    32    35    36    1
    33    36    37    1
    34    37    38    1
    35    10     1   ar
    36    38    33    1
    37    10     5   ar
    38    16    11   ar
    39    29    30    1
    40    25    27    1
    41    25    28    1
