@<TRIPOS>MOLECULE
*****
 26 28 0 0 0
SMALL
GASTEIGER

@<TRIPOS>ATOM
      1 C          64.3860   87.0599   14.7099 C.3     1  UNL1        0.2066
      2 C          63.9452   88.1175   13.7417 C.2     1  UNL1        0.3580
      3 N          63.0978   87.7469   12.5608 N.2     1  UNL1       -0.0039
      4 C          62.6571   88.8045   11.5927 C.2     1  UNL1        0.3159
      5 C          63.0637   90.2325   11.8055 C.3     1  UNL1        0.2333
      6 C          63.9111   90.6031   12.9864 C.2     1  UNL1        0.3644
      7 O          64.3178   92.0311   13.1992 O.2     1  UNL1       -0.2422
      8 N          64.3519   89.5455   13.9545 N.am    1  UNL1        0.0289
      9 N          61.8096   88.4340   10.4117 N.pl3   1  UNL1       -0.1888
     10 C          60.9530   89.4714    9.7483 C.3     1  UNL1        0.2343
     11 C          60.1056   89.1010    8.5674 C.3     1  UNL1        0.1929
     12 O          60.1147   87.6931    8.0498 O.3     1  UNL1       -0.3449
     13 C          60.9714   86.6557    8.7132 C.3     1  UNL1        0.1929
     14 C          61.8188   87.0262    9.8941 C.3     1  UNL1        0.2343
     15 O          65.4251   84.6899   14.4790 O.2     1  UNL1       -0.2741
     16 C          64.2474   85.6100   14.3513 C.2     1  UNL1        0.2387
     17 N          62.9309   85.0802   13.8650 N.am    1  UNL1       -0.2834
     18 H          62.1579   85.6842   13.7812 H       1  UNL1        0.1549
     19 C          62.7923   83.6304   13.5065 C.ar    1  UNL1        0.0513
     20 C          62.3375   82.6425   14.5395 C.ar    1  UNL1        0.0170
     21 C          62.1988   81.1926   14.1809 C.ar    1  UNL1        0.0318
     22 C          62.5149   80.7306   12.7893 C.ar    1  UNL1        0.1507
     23 F          62.3763   79.2807   12.4307 F       1  UNL1       -0.2033
     24 C          62.9697   81.7185   11.7562 C.ar    1  UNL1        0.0863
     25 CL         63.2858   81.2566   10.3646 Cl      1  UNL1       -0.0799
     26 C          63.1083   83.1685   12.1148 C.ar    1  UNL1        0.0283
@<TRIPOS>BOND
     1    15    16    2
     2    16     1    1
     3     1     2    1
     4     2     3    1
     5     3     4    2
     6     4     9    1
     7     9    10    1
     8    10    11    1
     9    11    12    1
    10    12    13    1
    11    13    14    1
    12     4     5    1
    13     5     6    1
    14     6     7    2
    15     6     8    1
    16    16    17   am
    17    17    19    1
    18    19    20   ar
    19    20    21   ar
    20    21    22   ar
    21    22    23    1
    22    22    24   ar
    23    24    25    1
    24    24    26   ar
    25     8     2    2
    26    26    19   ar
    27    14     9    1
    28    17    18    1
@<TRIPOS>MOLECULE
*****
 26 28 0 0 0
SMALL
GASTEIGER

@<TRIPOS>ATOM
      1 C          64.3210   87.1593   14.9448 C.3     1  UNL1        0.2066
      2 C          64.0817   88.2660   13.9609 C.2     1  UNL1        0.3580
      3 N          64.8262   89.5614   14.0936 N.2     1  UNL1       -0.0039
      4 C          64.5869   90.6681   13.1097 C.2     1  UNL1        0.3159
      5 C          63.6031   90.4794   11.9933 C.3     1  UNL1        0.2333
      6 C          62.8585   89.1840   11.8607 C.2     1  UNL1        0.3644
      7 O          61.8747   88.9953   10.7442 O.2     1  UNL1       -0.2422
      8 N          63.0978   88.0773   12.8445 N.am    1  UNL1        0.0289
      9 N          65.3315   91.9635   13.2424 N.pl3   1  UNL1       -0.1888
     10 C          65.9753   92.3284   14.5471 C.3     1  UNL1        0.2343
     11 C          66.7198   93.6238   14.6798 C.3     1  UNL1        0.1929
     12 O          66.8205   94.5544   13.5076 O.3     1  UNL1       -0.3449
     13 C          66.1767   94.1895   12.2028 C.3     1  UNL1        0.1929
     14 C          65.4322   92.8941   12.0702 C.3     1  UNL1        0.2343
     15 O          65.4208   84.8454   14.5131 O.2     1  UNL1       -0.2741
     16 C          64.2087   85.7291   14.5067 C.2     1  UNL1        0.2387
     17 N          62.8844   85.1825   14.0623 N.am    1  UNL1       -0.2834
     18 H          62.0889   85.7625   14.0581 H       1  UNL1        0.1549
     19 C          62.7722   83.7523   13.6242 C.ar    1  UNL1        0.0513
     20 C          62.2689   82.7122   14.5807 C.ar    1  UNL1        0.0170
     21 C          62.1567   81.2820   14.1426 C.ar    1  UNL1        0.0318
     22 C          62.5477   80.8919   12.7480 C.ar    1  UNL1        0.1507
     23 F          62.4355   79.4617   12.3099 F       1  UNL1       -0.2033
     24 C          63.0510   81.9320   11.7915 C.ar    1  UNL1        0.0863
     25 CL         63.4420   81.5419   10.3969 Cl      1  UNL1       -0.0799
     26 C          63.1632   83.3623   12.2296 C.ar    1  UNL1        0.0283
@<TRIPOS>BOND
     1    15    16    2
     2    16     1    1
     3     1     2    1
     4     2     3    1
     5     3     4    2
     6     4     9    1
     7     9    10    1
     8    10    11    1
     9    11    12    1
    10    12    13    1
    11    13    14    1
    12     4     5    1
    13     5     6    1
    14     6     7    2
    15     6     8    1
    16    16    17   am
    17    17    19    1
    18    19    20   ar
    19    20    21   ar
    20    21    22   ar
    21    22    23    1
    22    22    24   ar
    23    24    25    1
    24    24    26   ar
    25     8     2    2
    26    26    19   ar
    27    14     9    1
    28    17    18    1
@<TRIPOS>MOLECULE
*****
 26 28 0 0 0
SMALL
GASTEIGER

@<TRIPOS>ATOM
      1 C          63.0488   90.5718   12.9638 C.3     1  UNL1        0.2066
      2 C          64.3909   91.2388   13.0270 C.2     1  UNL1        0.3580
      3 N          64.7830   92.2358   11.9772 N.2     1  UNL1       -0.0039
      4 C          66.1251   92.9028   12.0404 C.2     1  UNL1        0.3159
      5 C          67.0750   92.5727   13.1534 C.3     1  UNL1        0.2333
      6 C          66.6828   91.5756   14.2032 C.2     1  UNL1        0.3644
      7 O          67.6327   91.2455   15.3162 O.2     1  UNL1       -0.2422
      8 N          65.3408   90.9087   14.1400 N.am    1  UNL1        0.0289
      9 N          66.5173   93.8999   10.9906 N.pl3   1  UNL1       -0.1888
     10 C          67.1850   93.4377    9.7295 C.3     1  UNL1        0.2343
     11 C          67.5772   94.4347    8.6797 C.3     1  UNL1        0.1929
     12 O          67.3017   95.8941    8.8911 O.3     1  UNL1       -0.3449
     13 C          66.6340   96.3562   10.1522 C.3     1  UNL1        0.1929
     14 C          66.2418   95.3591   11.2020 C.3     1  UNL1        0.2343
     15 O          63.0701   90.2724   10.3831 O.2     1  UNL1       -0.2741
     16 C          62.6541   89.7949   11.7429 C.2     1  UNL1        0.2387
     17 N          61.8434   88.5404   11.8817 N.am    1  UNL1       -0.2834
     18 H          61.5704   88.2270   12.7742 H       1  UNL1        0.1549
     19 C          61.4487   87.7636   10.6609 C.ar    1  UNL1        0.0513
     20 C          60.0764   87.9285   10.0781 C.ar    1  UNL1        0.0170
     21 C          59.6818   87.1516    8.8572 C.ar    1  UNL1        0.0318
     22 C          60.6594   86.2097    8.2190 C.ar    1  UNL1        0.1507
     23 F          60.2647   85.4328    6.9981 F       1  UNL1       -0.2033
     24 C          62.0317   86.0448    8.8018 C.ar    1  UNL1        0.0863
     25 CL         63.0093   85.1030    8.1637 Cl      1  UNL1       -0.0799
     26 C          62.4263   86.8217   10.0227 C.ar    1  UNL1        0.0283
@<TRIPOS>BOND
     1    15    16    2
     2    16     1    1
     3     1     2    1
     4     2     3    1
     5     3     4    2
     6     4     9    1
     7     9    10    1
     8    10    11    1
     9    11    12    1
    10    12    13    1
    11    13    14    1
    12     4     5    1
    13     5     6    1
    14     6     7    2
    15     6     8    1
    16    16    17   am
    17    17    19    1
    18    19    20   ar
    19    20    21   ar
    20    21    22   ar
    21    22    23    1
    22    22    24   ar
    23    24    25    1
    24    24    26   ar
    25     8     2    2
    26    26    19   ar
    27    14     9    1
    28    17    18    1
@<TRIPOS>MOLECULE
*****
 26 28 0 0 0
SMALL
GASTEIGER

@<TRIPOS>ATOM
      1 C          63.1778   90.4553   14.1534 C.3     1  UNL1        0.2066
      2 C          64.4034   91.3156   14.0642 C.2     1  UNL1        0.3580
      3 N          64.9545   91.6991   12.7229 N.2     1  UNL1       -0.0039
      4 C          66.1799   92.5595   12.6337 C.2     1  UNL1        0.3159
      5 C          66.8543   93.0363   13.8858 C.3     1  UNL1        0.2333
      6 C          66.3032   92.6528   15.2272 C.2     1  UNL1        0.3644
      7 O          66.9776   93.1296   16.4793 O.2     1  UNL1       -0.2422
      8 N          65.0777   91.7925   15.3163 N.am    1  UNL1        0.0289
      9 N          66.7311   92.9430   11.2923 N.pl3   1  UNL1       -0.1888
     10 C          66.2335   94.1786   10.6025 C.3     1  UNL1        0.2343
     11 C          66.7846   94.5621    9.2612 C.3     1  UNL1        0.1929
     12 O          67.8334   93.7102    8.6097 O.3     1  UNL1       -0.3449
     13 C          68.3309   92.4746    9.2995 C.3     1  UNL1        0.1929
     14 C          67.7798   92.0911   10.6409 C.3     1  UNL1        0.2343
     15 O          63.6692   88.3707   12.6826 O.2     1  UNL1       -0.2741
     16 C          62.8090   89.5546   13.0120 C.2     1  UNL1        0.2387
     17 N          61.5800   89.8378   12.2000 N.am    1  UNL1       -0.2834
     18 H          61.0154   90.6148   12.4161 H       1  UNL1        0.1549
     19 C          61.2112   88.9372   11.0586 C.ar    1  UNL1        0.0513
     20 C          61.4500   87.4599   11.1615 C.ar    1  UNL1        0.0170
     21 C          61.0812   86.5592   10.0201 C.ar    1  UNL1        0.0318
     22 C          60.4736   87.1359    8.7758 C.ar    1  UNL1        0.1507
     23 F          60.1048   86.2352    7.6344 F       1  UNL1       -0.2033
     24 C          60.2348   88.6132    8.6728 C.ar    1  UNL1        0.0863
     25 CL         59.6273   89.1898    7.4286 Cl      1  UNL1       -0.0799
     26 C          60.6037   89.5138    9.8143 C.ar    1  UNL1        0.0283
@<TRIPOS>BOND
     1    15    16    2
     2    16     1    1
     3     1     2    1
     4     2     3    1
     5     3     4    2
     6     4     9    1
     7     9    10    1
     8    10    11    1
     9    11    12    1
    10    12    13    1
    11    13    14    1
    12     4     5    1
    13     5     6    1
    14     6     7    2
    15     6     8    1
    16    16    17   am
    17    17    19    1
    18    19    20   ar
    19    20    21   ar
    20    21    22   ar
    21    22    23    1
    22    22    24   ar
    23    24    25    1
    24    24    26   ar
    25     8     2    2
    26    26    19   ar
    27    14     9    1
    28    17    18    1
@<TRIPOS>MOLECULE
*****
 26 28 0 0 0
SMALL
GASTEIGER

@<TRIPOS>ATOM
      1 C          61.5991   89.0215   11.0926 C.3     1  UNL1        0.2066
      2 C          61.9969   87.6023   10.8140 C.2     1  UNL1        0.3580
      3 N          62.2918   86.6691   11.9507 N.2     1  UNL1       -0.0039
      4 C          62.6896   85.2500   11.6721 C.2     1  UNL1        0.3159
      5 C          62.7926   84.7640   10.2567 C.3     1  UNL1        0.2333
      6 C          62.4977   85.6972    9.1200 C.2     1  UNL1        0.3644
      7 O          62.6007   85.2112    7.7047 O.2     1  UNL1       -0.2422
      8 N          62.0999   87.1163    9.3986 N.am    1  UNL1        0.0289
      9 N          62.9845   84.3167   12.8088 N.pl3   1  UNL1       -0.1888
     10 C          63.5361   84.8536   14.0963 C.3     1  UNL1        0.2343
     11 C          63.8309   83.9205   15.2330 C.3     1  UNL1        0.1929
     12 O          63.5742   82.4502   15.0823 O.3     1  UNL1       -0.3449
     13 C          63.0227   81.9133   13.7949 C.3     1  UNL1        0.1929
     14 C          62.7278   82.8465   12.6581 C.3     1  UNL1        0.2343
     15 O          62.9203   91.2418   11.3657 O.2     1  UNL1       -0.2741
     16 C          62.4979   89.9069   11.9038 C.2     1  UNL1        0.2387
     17 N          62.9743   89.4575   13.2533 N.am    1  UNL1       -0.2834
     18 H          62.6971   88.5813   13.6066 H       1  UNL1        0.1549
     19 C          63.8731   90.3428   14.0646 C.ar    1  UNL1        0.0513
     20 C          63.4969   90.7076   15.4701 C.ar    1  UNL1        0.0170
     21 C          64.3957   91.5930   16.2814 C.ar    1  UNL1        0.0318
     22 C          65.6708   92.1137   15.6871 C.ar    1  UNL1        0.1507
     23 F          66.5696   92.9991   16.4984 F       1  UNL1       -0.2033
     24 C          66.0471   91.7489   14.2816 C.ar    1  UNL1        0.0863
     25 CL         67.3221   92.2696   13.6874 Cl      1  UNL1       -0.0799
     26 C          65.1482   90.8635   13.4704 C.ar    1  UNL1        0.0283
@<TRIPOS>BOND
     1    15    16    2
     2    16     1    1
     3     1     2    1
     4     2     3    1
     5     3     4    2
     6     4     9    1
     7     9    10    1
     8    10    11    1
     9    11    12    1
    10    12    13    1
    11    13    14    1
    12     4     5    1
    13     5     6    1
    14     6     7    2
    15     6     8    1
    16    16    17   am
    17    17    19    1
    18    19    20   ar
    19    20    21   ar
    20    21    22   ar
    21    22    23    1
    22    22    24   ar
    23    24    25    1
    24    24    26   ar
    25     8     2    2
    26    26    19   ar
    27    14     9    1
    28    17    18    1
@<TRIPOS>MOLECULE
*****
 26 28 0 0 0
SMALL
GASTEIGER

@<TRIPOS>ATOM
      1 C          63.6374   90.6268   12.7480 C.3     1  UNL1        0.2066
      2 C          63.1835   89.2614   12.3241 C.2     1  UNL1        0.3580
      3 N          62.3092   89.1033   11.1155 N.2     1  UNL1       -0.0039
      4 C          61.8553   87.7380   10.6916 C.2     1  UNL1        0.3159
      5 C          62.2756   86.5307   11.4763 C.3     1  UNL1        0.2333
      6 C          63.1499   86.6887   12.6849 C.2     1  UNL1        0.3644
      7 O          63.5702   85.4814   13.4696 O.2     1  UNL1       -0.2422
      8 N          63.6038   88.0541   13.1088 N.am    1  UNL1        0.0289
      9 N          60.9810   87.5799    9.4830 N.pl3   1  UNL1       -0.1888
     10 C          60.3230   88.7810    8.8711 C.3     1  UNL1        0.2343
     11 C          59.4488   88.6229    7.6625 C.3     1  UNL1        0.1929
     12 O          59.2324   87.2637    7.0658 O.3     1  UNL1       -0.3449
     13 C          59.8904   86.0627    7.6778 C.3     1  UNL1        0.1929
     14 C          60.7647   86.2208    8.8864 C.3     1  UNL1        0.2343
     15 O          63.5871   91.8432   10.4529 O.2     1  UNL1       -0.2741
     16 C          64.2771   91.5475   11.7515 C.2     1  UNL1        0.2387
     17 N          65.6069   92.1725   12.0535 N.am    1  UNL1       -0.2834
     18 H          66.0598   91.9783   12.9059 H       1  UNL1        0.1549
     19 C          66.2466   93.0931   11.0570 C.ar    1  UNL1        0.0513
     20 C          67.3527   92.5929   10.1760 C.ar    1  UNL1        0.0170
     21 C          67.9924   93.5136    9.1794 C.ar    1  UNL1        0.0318
     22 C          67.5259   94.9346    9.0639 C.ar    1  UNL1        0.1507
     23 F          68.1656   95.8553    8.0674 F       1  UNL1       -0.2033
     24 C          66.4198   95.4348    9.9450 C.ar    1  UNL1        0.0863
     25 CL         65.9534   96.8557    9.8295 Cl      1  UNL1       -0.0799
     26 C          65.7801   94.5140   10.9415 C.ar    1  UNL1        0.0283
@<TRIPOS>BOND
     1    15    16    2
     2    16     1    1
     3     1     2    1
     4     2     3    1
     5     3     4    2
     6     4     9    1
     7     9    10    1
     8    10    11    1
     9    11    12    1
    10    12    13    1
    11    13    14    1
    12     4     5    1
    13     5     6    1
    14     6     7    2
    15     6     8    1
    16    16    17   am
    17    17    19    1
    18    19    20   ar
    19    20    21   ar
    20    21    22   ar
    21    22    23    1
    22    22    24   ar
    23    24    25    1
    24    24    26   ar
    25     8     2    2
    26    26    19   ar
    27    14     9    1
    28    17    18    1
@<TRIPOS>MOLECULE
*****
 26 28 0 0 0
SMALL
GASTEIGER

@<TRIPOS>ATOM
      1 C          63.1472   90.2986   12.2848 C.3     1  UNL1        0.2066
      2 C          62.7245   88.9715   11.7278 C.2     1  UNL1        0.3580
      3 N          63.1135   87.7049   12.4308 N.2     1  UNL1       -0.0039
      4 C          62.6908   86.3778   11.8739 C.2     1  UNL1        0.3159
      5 C          61.8791   86.3174   10.6139 C.3     1  UNL1        0.2333
      6 C          61.4901   87.5841    9.9109 C.2     1  UNL1        0.3644
      7 O          60.6784   87.5236    8.6510 O.2     1  UNL1       -0.2422
      8 N          61.9128   88.9111   10.4679 N.am    1  UNL1        0.0289
      9 N          63.0799   85.1111   12.5769 N.pl3   1  UNL1       -0.1888
     10 C          62.7085   83.7823   11.9883 C.3     1  UNL1        0.2343
     11 C          63.0975   82.5156   12.6913 C.3     1  UNL1        0.1929
     12 O          63.8579   82.5777   13.9828 O.3     1  UNL1       -0.3449
     13 C          64.2292   83.9065   14.5714 C.3     1  UNL1        0.1929
     14 C          63.8402   85.1732   13.8684 C.3     1  UNL1        0.2343
     15 O          63.3367   91.6671   10.0845 O.2     1  UNL1       -0.2741
     16 C          63.8927   91.2717   11.4203 C.2     1  UNL1        0.2387
     17 N          65.1944   91.8494   11.8917 N.am    1  UNL1       -0.2834
     18 H          65.5593   91.5898   12.7685 H       1  UNL1        0.1549
     19 C          65.9399   92.8224   11.0272 C.ar    1  UNL1        0.0513
     20 C          67.1086   92.3572   10.2102 C.ar    1  UNL1        0.0170
     21 C          67.8542   93.3302    9.3457 C.ar    1  UNL1        0.0318
     22 C          67.4310   94.7686    9.2983 C.ar    1  UNL1        0.1507
     23 F          68.1765   95.7416    8.4339 F       1  UNL1       -0.2033
     24 C          66.2622   95.2338   10.1154 C.ar    1  UNL1        0.0863
     25 CL         65.8390   96.6720   10.0680 Cl      1  UNL1       -0.0799
     26 C          65.5167   94.2606   10.9799 C.ar    1  UNL1        0.0283
@<TRIPOS>BOND
     1    15    16    2
     2    16     1    1
     3     1     2    1
     4     2     3    1
     5     3     4    2
     6     4     9    1
     7     9    10    1
     8    10    11    1
     9    11    12    1
    10    12    13    1
    11    13    14    1
    12     4     5    1
    13     5     6    1
    14     6     7    2
    15     6     8    1
    16    16    17   am
    17    17    19    1
    18    19    20   ar
    19    20    21   ar
    20    21    22   ar
    21    22    23    1
    22    22    24   ar
    23    24    25    1
    24    24    26   ar
    25     8     2    2
    26    26    19   ar
    27    14     9    1
    28    17    18    1
@<TRIPOS>MOLECULE
*****
 26 28 0 0 0
SMALL
GASTEIGER

@<TRIPOS>ATOM
      1 C          63.9423   83.4204   10.2995 C.3     1  UNL1        0.2066
      2 C          63.7943   83.2158   11.7781 C.2     1  UNL1        0.3580
      3 N          63.6902   84.4003   12.6925 N.2     1  UNL1       -0.0039
      4 C          63.5422   84.1956   14.1710 C.2     1  UNL1        0.3159
      5 C          63.4983   82.8064   14.7352 C.3     1  UNL1        0.2333
      6 C          63.6023   81.6220   13.8208 C.2     1  UNL1        0.3644
      7 O          63.5583   80.2328   14.3850 O.2     1  UNL1       -0.2422
      8 N          63.7503   81.8266   12.3423 N.am    1  UNL1        0.0289
      9 N          63.4382   85.3801   15.0855 N.pl3   1  UNL1       -0.1888
     10 C          64.0447   86.6923   14.6850 C.3     1  UNL1        0.2343
     11 C          63.9407   87.8768   15.5994 C.3     1  UNL1        0.1929
     12 O          63.2302   87.7491   16.9144 O.3     1  UNL1       -0.3449
     13 C          62.6237   86.4369   17.3148 C.3     1  UNL1        0.1929
     14 C          62.7277   85.2524   16.4004 C.3     1  UNL1        0.2343
     15 O          63.4027   84.7849    8.1554 O.2     1  UNL1       -0.2741
     16 C          63.1773   84.5131    9.6133 C.2     1  UNL1        0.2387
     17 N          62.1870   85.3340   10.3849 N.am    1  UNL1       -0.2834
     18 H          62.0391   85.1556   11.3418 H       1  UNL1        0.1549
     19 C          61.4221   86.4267    9.6988 C.ar    1  UNL1        0.0513
     20 C          60.5241   86.1013    8.5421 C.ar    1  UNL1        0.0170
     21 C          59.7592   87.1940    7.8559 C.ar    1  UNL1        0.0318
     22 C          59.8922   88.6121    8.3264 C.ar    1  UNL1        0.1507
     23 F          59.1273   89.7048    7.6402 F       1  UNL1       -0.2033
     24 C          60.7901   88.9375    9.4830 C.ar    1  UNL1        0.0863
     25 CL         60.9232   90.3556    9.9534 Cl      1  UNL1       -0.0799
     26 C          61.5551   87.8448   10.1692 C.ar    1  UNL1        0.0283
@<TRIPOS>BOND
     1    15    16    2
     2    16     1    1
     3     1     2    1
     4     2     3    1
     5     3     4    2
     6     4     9    1
     7     9    10    1
     8    10    11    1
     9    11    12    1
    10    12    13    1
    11    13    14    1
    12     4     5    1
    13     5     6    1
    14     6     7    2
    15     6     8    1
    16    16    17   am
    17    17    19    1
    18    19    20   ar
    19    20    21   ar
    20    21    22   ar
    21    22    23    1
    22    22    24   ar
    23    24    25    1
    24    24    26   ar
    25     8     2    2
    26    26    19   ar
    27    14     9    1
    28    17    18    1
@<TRIPOS>MOLECULE
*****
 26 28 0 0 0
SMALL
GASTEIGER

@<TRIPOS>ATOM
      1 C          62.0018   88.6629   11.2855 C.3     1  UNL1        0.2066
      2 C          62.2527   87.2452   10.8644 C.2     1  UNL1        0.3580
      3 N          62.3273   86.1585   11.8956 N.2     1  UNL1       -0.0039
      4 C          62.5782   84.7409   11.4745 C.2     1  UNL1        0.3159
      5 C          62.7546   84.4099   10.0222 C.3     1  UNL1        0.2333
      6 C          62.6800   85.4966    8.9909 C.2     1  UNL1        0.3644
      7 O          62.8564   85.1657    7.5385 O.2     1  UNL1       -0.2422
      8 N          62.4291   86.9142    9.4120 N.am    1  UNL1        0.0289
      9 N          62.6527   83.6541   12.5058 N.pl3   1  UNL1       -0.1888
     10 C          62.7073   82.2173   12.0786 C.3     1  UNL1        0.2343
     11 C          62.7818   81.1305   13.1098 C.3     1  UNL1        0.1929
     12 O          62.8018   81.4806   14.5683 O.3     1  UNL1       -0.3449
     13 C          62.7473   82.9175   14.9955 C.3     1  UNL1        0.1929
     14 C          62.6727   84.0042   13.9642 C.3     1  UNL1        0.2343
     15 O          63.7500   88.7424   13.2057 O.2     1  UNL1       -0.2741
     16 C          63.0446   89.4101   12.0627 C.2     1  UNL1        0.2387
     17 N          63.3820   90.8252   11.6969 N.am    1  UNL1       -0.2834
     18 H          62.9190   91.2635   10.9467 H       1  UNL1        0.1549
     19 C          64.4248   91.5725   12.4742 C.ar    1  UNL1        0.0513
     20 C          65.4675   92.3737   11.7524 C.ar    1  UNL1        0.0170
     21 C          66.5102   93.1209   12.5297 C.ar    1  UNL1        0.0318
     22 C          66.5103   93.0671   14.0288 C.ar    1  UNL1        0.1507
     23 F          67.5531   93.8144   14.8060 F       1  UNL1       -0.2033
     24 C          65.4676   92.2659   14.7505 C.ar    1  UNL1        0.0863
     25 CL         65.4677   92.2121   16.2495 Cl      1  UNL1       -0.0799
     26 C          64.4248   91.5186   13.9732 C.ar    1  UNL1        0.0283
@<TRIPOS>BOND
     1    15    16    2
     2    16     1    1
     3     1     2    1
     4     2     3    1
     5     3     4    2
     6     4     9    1
     7     9    10    1
     8    10    11    1
     9    11    12    1
    10    12    13    1
    11    13    14    1
    12     4     5    1
    13     5     6    1
    14     6     7    2
    15     6     8    1
    16    16    17   am
    17    17    19    1
    18    19    20   ar
    19    20    21   ar
    20    21    22   ar
    21    22    23    1
    22    22    24   ar
    23    24    25    1
    24    24    26   ar
    25     8     2    2
    26    26    19   ar
    27    14     9    1
    28    17    18    1
