@<TRIPOS>MOLECULE
*****
 35 38 0 0 0
SMALL
GASTEIGER

@<TRIPOS>ATOM
      1 N          64.0225   84.8186   15.3804 N.3     1  UNL1       -0.2682
      2 C          64.6583   85.9180   14.5822 C.3     1  UNL1        0.0897
      3 C          64.3949   87.3513   14.9371 C.3     1  UNL1        0.0900
      4 N          63.4956   87.6854   16.0902 N.3     1  UNL1       -0.2626
      5 C          62.8597   86.5860   16.8884 C.3     1  UNL1        0.0900
      6 C          63.1232   85.1526   16.5335 C.3     1  UNL1        0.0897
      7 C          64.2860   83.3852   15.0255 C.3     1  UNL1        0.1056
      8 C          63.2040   82.5567   14.3987 C.3     1  UNL1        0.1700
      9 O          61.9608   82.2355   15.1743 O.3     1  UNL1       -0.3793
     10 H          62.0170   82.6365   16.0557 H       1  UNL1        0.2106
     11 C          63.3651   82.0494   12.9963 C.3     1  UNL1        0.2358
     12 O          64.1618   82.8386   12.0001 O.3     1  UNL1       -0.4727
     13 C          59.8500   89.1227   10.1181 C.3     1  UNL1        0.0594
     14 C          60.7261   87.9076   10.1949 C.ar    1  UNL1        0.0886
     15 N          61.0885   87.1594   11.4435 N.ar    1  UNL1       -0.2426
     16 C          61.9799   86.0166   11.0568 C.ar    1  UNL1        0.0905
     17 C          62.6444   84.9434   11.8671 C.ar    1  UNL1        0.0565
     18 C          63.4973   83.9120   11.1898 C.ar    1  UNL1        0.1402
     19 C          63.6858   83.9539    9.7023 C.ar    1  UNL1        0.0375
     20 C          63.0214   85.0272    8.8921 C.ar    1  UNL1        0.0111
     21 C          62.1685   86.0586    9.5693 C.ar    1  UNL1        0.0484
     22 S          61.3935   87.2272    9.0367 S.2     1  UNL1       -0.0708
     23 C          63.2321   89.1188   16.4451 C.3     1  UNL1        0.1588
     24 C          63.6982   90.2150   15.5335 C.2     1  UNL1        0.2425
     25 O          63.3935   91.6460   15.8644 O.2     1  UNL1       -0.2733
     26 N          64.4691   89.8803   14.2911 N.am    1  UNL1       -0.2833
     27 H          64.6691   88.9411   14.0739 H       1  UNL1        0.1549
     28 C          64.9352   90.9765   13.3795 C.ar    1  UNL1        0.0423
     29 C          64.1771   91.2786   12.1210 C.ar    1  UNL1       -0.0087
     30 C          62.9527   90.4845   11.7740 C.3     1  UNL1        0.0323
     31 C          64.6433   92.3749   11.2094 C.ar    1  UNL1       -0.0031
     32 C          65.8676   93.1690   11.5563 C.ar    1  UNL1       -0.0006
     33 C          66.6257   92.8669   12.8148 C.ar    1  UNL1       -0.0031
     34 C          66.1595   91.7707   13.7264 C.ar    1  UNL1       -0.0087
     35 C          66.9178   91.4686   14.9850 C.3     1  UNL1        0.0323
@<TRIPOS>BOND
     1    13    14    1
     2    14    15   ar
     3    15    16   ar
     4    16    17   ar
     5    17    18   ar
     6    18    12    1
     7    12    11    1
     8    11     8    1
     9     8     9    1
    10     8     7    1
    11     7     1    1
    12     1     2    1
    13     2     3    1
    14     3     4    1
    15     4    23    1
    16    23    24    1
    17    24    25    2
    18    24    26   am
    19    26    28    1
    20    28    29   ar
    21    29    30    1
    22    29    31   ar
    23    31    32   ar
    24    32    33   ar
    25    33    34   ar
    26    34    35    1
    27     4     5    1
    28     5     6    1
    29    18    19   ar
    30    19    20   ar
    31    20    21   ar
    32    21    22   ar
    33    22    14   ar
    34    21    16   ar
    35     6     1    1
    36    34    28   ar
    37     9    10    1
    38    26    27    1
@<TRIPOS>MOLECULE
*****
 35 38 0 0 0
SMALL
GASTEIGER

@<TRIPOS>ATOM
      1 N          63.9532   89.2068   15.5233 N.3     1  UNL1       -0.2682
      2 C          63.1204   88.8146   16.7077 C.3     1  UNL1        0.0897
      3 C          62.7812   87.3724   16.9416 C.3     1  UNL1        0.0900
      4 N          63.2748   86.3222   15.9911 N.3     1  UNL1       -0.2626
      5 C          64.1076   86.7143   14.8067 C.3     1  UNL1        0.0900
      6 C          64.4468   88.1566   14.5729 C.3     1  UNL1        0.0897
      7 C          64.2923   90.6491   15.2895 C.3     1  UNL1        0.1056
      8 C          64.8015   91.0922   13.9499 C.3     1  UNL1        0.1700
      9 O          66.2038   91.6069   13.8133 O.3     1  UNL1       -0.3793
     10 H          66.6412   91.5871   14.6789 H       1  UNL1        0.2106
     11 C          63.9084   91.0205   12.7469 C.3     1  UNL1        0.2358
     12 O          62.5114   90.4908   12.8804 O.3     1  UNL1       -0.4727
     13 C          60.9620   85.2859    7.2119 C.3     1  UNL1        0.0594
     14 C          61.0282   86.4198    8.1916 C.ar    1  UNL1        0.0886
     15 N          62.0453   86.5848    9.2818 N.ar    1  UNL1       -0.2426
     16 C          61.7347   87.8548   10.0171 C.ar    1  UNL1        0.0905
     17 C          62.3966   88.5268   11.1834 C.ar    1  UNL1        0.0565
     18 C          61.8495   89.8187   11.7141 C.ar    1  UNL1        0.1402
     19 C          60.6405   90.4386   11.0784 C.ar    1  UNL1        0.0375
     20 C          59.9786   89.7666    9.9121 C.ar    1  UNL1        0.0111
     21 C          60.5257   88.4747    9.3815 C.ar    1  UNL1        0.0484
     22 S          60.0891   87.5878    8.2533 S.2     1  UNL1       -0.0708
     23 C          62.9356   84.8798   16.2249 C.3     1  UNL1        0.1588
     24 C          63.2294   83.8591   15.1658 C.2     1  UNL1        0.2425
     25 O          64.4243   82.9621   15.2995 O.2     1  UNL1       -0.2733
     26 N          62.3283   83.7352   13.9731 N.am    1  UNL1       -0.2833
     27 H          61.5441   84.3239   13.8854 H       1  UNL1        0.1549
     28 C          62.6221   82.7145   12.9139 C.ar    1  UNL1        0.0423
     29 C          63.3586   83.1149   11.6701 C.ar    1  UNL1       -0.0087
     30 C          63.8014   84.5361   11.4854 C.3     1  UNL1        0.0323
     31 C          63.6524   82.0941   10.6110 C.ar    1  UNL1       -0.0031
     32 C          63.2096   80.6729   10.7957 C.ar    1  UNL1       -0.0006
     33 C          62.4730   80.2725   12.0395 C.ar    1  UNL1       -0.0031
     34 C          62.1793   81.2933   13.0986 C.ar    1  UNL1       -0.0087
     35 C          61.4427   80.8928   14.3425 C.3     1  UNL1        0.0323
@<TRIPOS>BOND
     1    13    14    1
     2    14    15   ar
     3    15    16   ar
     4    16    17   ar
     5    17    18   ar
     6    18    12    1
     7    12    11    1
     8    11     8    1
     9     8     9    1
    10     8     7    1
    11     7     1    1
    12     1     2    1
    13     2     3    1
    14     3     4    1
    15     4    23    1
    16    23    24    1
    17    24    25    2
    18    24    26   am
    19    26    28    1
    20    28    29   ar
    21    29    30    1
    22    29    31   ar
    23    31    32   ar
    24    32    33   ar
    25    33    34   ar
    26    34    35    1
    27     4     5    1
    28     5     6    1
    29    18    19   ar
    30    19    20   ar
    31    20    21   ar
    32    21    22   ar
    33    22    14   ar
    34    21    16   ar
    35     6     1    1
    36    34    28   ar
    37     9    10    1
    38    26    27    1
@<TRIPOS>MOLECULE
*****
 35 38 0 0 0
SMALL
GASTEIGER

@<TRIPOS>ATOM
      1 N          60.6733   88.7383    9.5876 N.3     1  UNL1       -0.2682
      2 C          62.1049   89.1157    9.8289 C.3     1  UNL1        0.0897
      3 C          62.5634   89.4736   11.2115 C.3     1  UNL1        0.0900
      4 N          61.5903   89.4540   12.3528 N.3     1  UNL1       -0.2626
      5 C          60.1588   89.0766   12.1116 C.3     1  UNL1        0.0900
      6 C          59.7002   88.7188   10.7290 C.3     1  UNL1        0.0897
      7 C          60.2148   88.3805    8.2049 C.3     1  UNL1        0.1056
      8 C          59.7202   86.9945    7.9140 C.3     1  UNL1        0.1700
      9 O          58.2476   86.7319    7.8015 O.3     1  UNL1       -0.3793
     10 H          57.7601   87.5586    7.9424 H       1  UNL1        0.2106
     11 C          60.6981   85.8713    7.7356 C.3     1  UNL1        0.2358
     12 O          62.1148   86.0289    8.2027 O.3     1  UNL1       -0.4727
     13 C          63.1268   83.6546   15.6163 C.3     1  UNL1        0.0594
     14 C          63.1170   83.8958   14.1359 C.ar    1  UNL1        0.0886
     15 N          62.3332   84.9559   13.4205 N.ar    1  UNL1       -0.2426
     16 C          62.6211   84.8346   11.9534 C.ar    1  UNL1        0.0905
     17 C          62.1318   85.6111   10.7670 C.ar    1  UNL1        0.0565
     18 C          62.6041   85.2524    9.3892 C.ar    1  UNL1        0.1402
     19 C          63.5658   84.1173    9.1979 C.ar    1  UNL1        0.0375
     20 C          64.0551   83.3408   10.3843 C.ar    1  UNL1        0.0111
     21 C          63.5828   83.6994   11.7620 C.ar    1  UNL1        0.0484
     22 S          63.8892   83.1193   13.1109 S.2     1  UNL1       -0.0708
     23 C          62.0489   89.8119   13.7355 C.3     1  UNL1        0.1588
     24 C          63.4782   90.1987   13.9751 C.2     1  UNL1        0.2425
     25 O          64.5141   89.1380   14.2032 O.2     1  UNL1       -0.2733
     26 N          63.8716   91.6461   13.9865 N.am    1  UNL1       -0.2833
     27 H          63.1918   92.3422   13.8368 H       1  UNL1        0.1549
     28 C          65.3010   92.0329   14.2260 C.ar    1  UNL1        0.0423
     29 C          66.2389   92.1935   13.0665 C.ar    1  UNL1       -0.0087
     30 C          65.7475   91.9673   11.6674 C.3     1  UNL1        0.0323
     31 C          67.6682   92.5803   13.3061 C.ar    1  UNL1       -0.0031
     32 C          68.1596   92.8066   14.7051 C.ar    1  UNL1       -0.0006
     33 C          67.2217   92.6460   15.8646 C.ar    1  UNL1       -0.0031
     34 C          65.7924   92.2592   15.6250 C.ar    1  UNL1       -0.0087
     35 C          64.8544   92.0986   16.7846 C.3     1  UNL1        0.0323
@<TRIPOS>BOND
     1    13    14    1
     2    14    15   ar
     3    15    16   ar
     4    16    17   ar
     5    17    18   ar
     6    18    12    1
     7    12    11    1
     8    11     8    1
     9     8     9    1
    10     8     7    1
    11     7     1    1
    12     1     2    1
    13     2     3    1
    14     3     4    1
    15     4    23    1
    16    23    24    1
    17    24    25    2
    18    24    26   am
    19    26    28    1
    20    28    29   ar
    21    29    30    1
    22    29    31   ar
    23    31    32   ar
    24    32    33   ar
    25    33    34   ar
    26    34    35    1
    27     4     5    1
    28     5     6    1
    29    18    19   ar
    30    19    20   ar
    31    20    21   ar
    32    21    22   ar
    33    22    14   ar
    34    21    16   ar
    35     6     1    1
    36    34    28   ar
    37     9    10    1
    38    26    27    1
@<TRIPOS>MOLECULE
*****
 35 38 0 0 0
SMALL
GASTEIGER

@<TRIPOS>ATOM
      1 N          60.6702   88.7332    9.5869 N.3     1  UNL1       -0.2682
      2 C          59.7172   88.6427   10.7418 C.3     1  UNL1        0.0897
      3 C          60.1782   88.9984   12.1241 C.3     1  UNL1        0.0900
      4 N          61.5921   89.4447   12.3516 N.3     1  UNL1       -0.2626
      5 C          62.5450   89.5351   11.1967 C.3     1  UNL1        0.0900
      6 C          62.0840   89.1794    9.8143 C.3     1  UNL1        0.0897
      7 C          60.2091   88.3774    8.2045 C.3     1  UNL1        0.1056
      8 C          59.7165   86.9911    7.9118 C.3     1  UNL1        0.1700
      9 O          58.2440   86.7256    7.8043 O.3     1  UNL1       -0.3793
     10 H          57.7552   87.5507    7.9494 H       1  UNL1        0.2106
     11 C          60.6962   85.8705    7.7265 C.3     1  UNL1        0.2358
     12 O          62.1138   86.0293    8.1904 O.3     1  UNL1       -0.4727
     13 C          63.1595   83.6432   15.5956 C.3     1  UNL1        0.0594
     14 C          63.1424   83.8863   14.1155 C.ar    1  UNL1        0.0886
     15 N          62.3574   84.9493   13.4056 N.ar    1  UNL1       -0.2426
     16 C          62.6371   84.8291   11.9368 C.ar    1  UNL1        0.0905
     17 C          62.1434   85.6082   10.7540 C.ar    1  UNL1        0.0565
     18 C          62.6075   85.2501    9.3733 C.ar    1  UNL1        0.1402
     19 C          63.5653   84.1128    9.1754 C.ar    1  UNL1        0.0375
     20 C          64.0590   83.3336   10.3583 C.ar    1  UNL1        0.0111
     21 C          63.5949   83.6918   11.7389 C.ar    1  UNL1        0.0484
     22 S          63.9072   83.1091   13.0854 S.2     1  UNL1       -0.0708
     23 C          62.0531   89.8005   13.7340 C.3     1  UNL1        0.1588
     24 C          63.4823   90.1895   13.9710 C.2     1  UNL1        0.2425
     25 O          64.5207   89.1303   14.1944 O.2     1  UNL1       -0.2733
     26 N          63.8730   91.6376   13.9847 N.am    1  UNL1       -0.2833
     27 H          63.1914   92.3328   13.8380 H       1  UNL1        0.1549
     28 C          65.3021   92.0267   14.2217 C.ar    1  UNL1        0.0423
     29 C          65.7947   92.2572   15.6196 C.ar    1  UNL1       -0.0087
     30 C          64.8581   92.0987   16.7806 C.3     1  UNL1        0.0323
     31 C          67.2239   92.6462   15.8566 C.ar    1  UNL1       -0.0031
     32 C          68.1604   92.8047   14.6958 C.ar    1  UNL1       -0.0006
     33 C          67.6679   92.5742   13.2979 C.ar    1  UNL1       -0.0031
     34 C          66.2387   92.1852   13.0608 C.ar    1  UNL1       -0.0087
     35 C          65.7462   91.9546   11.6628 C.3     1  UNL1        0.0323
@<TRIPOS>BOND
     1    13    14    1
     2    14    15   ar
     3    15    16   ar
     4    16    17   ar
     5    17    18   ar
     6    18    12    1
     7    12    11    1
     8    11     8    1
     9     8     9    1
    10     8     7    1
    11     7     1    1
    12     1     2    1
    13     2     3    1
    14     3     4    1
    15     4    23    1
    16    23    24    1
    17    24    25    2
    18    24    26   am
    19    26    28    1
    20    28    29   ar
    21    29    30    1
    22    29    31   ar
    23    31    32   ar
    24    32    33   ar
    25    33    34   ar
    26    34    35    1
    27     4     5    1
    28     5     6    1
    29    18    19   ar
    30    19    20   ar
    31    20    21   ar
    32    21    22   ar
    33    22    14   ar
    34    21    16   ar
    35     6     1    1
    36    34    28   ar
    37     9    10    1
    38    26    27    1
@<TRIPOS>MOLECULE
*****
 35 38 0 0 0
SMALL
GASTEIGER

@<TRIPOS>ATOM
      1 N          60.3709   87.0519    8.8154 N.3     1  UNL1       -0.2682
      2 C          60.5537   86.5612   10.2211 C.3     1  UNL1        0.0897
      3 C          60.8782   87.5315   11.3179 C.3     1  UNL1        0.0900
      4 N          61.0201   88.9925   11.0091 N.3     1  UNL1       -0.2626
      5 C          60.8374   89.4831    9.6034 C.3     1  UNL1        0.0900
      6 C          60.5128   88.5128    8.5066 C.3     1  UNL1        0.0897
      7 C          60.0463   86.0815    7.7186 C.3     1  UNL1        0.1056
      8 C          61.1191   85.1938    7.1608 C.3     1  UNL1        0.1700
      9 O          60.8083   84.2645    6.0250 O.3     1  UNL1       -0.3793
     10 H          59.8767   84.3620    5.7731 H       1  UNL1        0.2106
     11 C          62.5027   85.2354    7.7386 C.3     1  UNL1        0.2358
     12 O          63.1438   83.9758    8.2411 O.3     1  UNL1       -0.4727
     13 C          63.6009   85.4784   15.9324 C.3     1  UNL1        0.0594
     14 C          63.6580   84.9513   14.5293 C.ar    1  UNL1        0.0886
     15 N          63.0844   85.6165   13.3134 N.ar    1  UNL1       -0.2426
     16 C          63.3707   84.7427   12.1283 C.ar    1  UNL1        0.0905
     17 C          63.0448   84.8889   10.6715 C.ar    1  UNL1        0.0565
     18 C          63.4696   83.8297    9.6980 C.ar    1  UNL1        0.1402
     19 C          64.2203   82.6243   10.1814 C.ar    1  UNL1        0.0375
     20 C          64.5461   82.4782   11.6383 C.ar    1  UNL1        0.0111
     21 C          64.1213   83.5374   12.6117 C.ar    1  UNL1        0.0484
     22 S          64.2989   83.6663   14.0956 S.2     1  UNL1       -0.0708
     23 C          61.3447   89.9629   12.1060 C.3     1  UNL1        0.1588
     24 C          62.7664   90.1480   12.5471 C.2     1  UNL1        0.2425
     25 O          63.6575   88.9547   12.7265 O.2     1  UNL1       -0.2733
     26 N          63.2970   91.5264   12.8088 N.am    1  UNL1       -0.2833
     27 H          62.7122   92.3095   12.6911 H       1  UNL1        0.1549
     28 C          64.7187   91.7115   13.2500 C.ar    1  UNL1        0.0423
     29 C          65.7508   92.1906   12.2727 C.ar    1  UNL1       -0.0087
     30 C          65.3614   92.4846   10.8542 C.3     1  UNL1        0.0323
     31 C          67.1725   92.3757   12.7138 C.ar    1  UNL1       -0.0031
     32 C          67.5620   92.0818   14.1322 C.ar    1  UNL1       -0.0006
     33 C          66.5298   91.6027   15.1095 C.ar    1  UNL1       -0.0031
     34 C          65.1082   91.4176   14.6683 C.ar    1  UNL1       -0.0087
     35 C          64.0760   90.9384   15.6457 C.3     1  UNL1        0.0323
@<TRIPOS>BOND
     1    13    14    1
     2    14    15   ar
     3    15    16   ar
     4    16    17   ar
     5    17    18   ar
     6    18    12    1
     7    12    11    1
     8    11     8    1
     9     8     9    1
    10     8     7    1
    11     7     1    1
    12     1     2    1
    13     2     3    1
    14     3     4    1
    15     4    23    1
    16    23    24    1
    17    24    25    2
    18    24    26   am
    19    26    28    1
    20    28    29   ar
    21    29    30    1
    22    29    31   ar
    23    31    32   ar
    24    32    33   ar
    25    33    34   ar
    26    34    35    1
    27     4     5    1
    28     5     6    1
    29    18    19   ar
    30    19    20   ar
    31    20    21   ar
    32    21    22   ar
    33    22    14   ar
    34    21    16   ar
    35     6     1    1
    36    34    28   ar
    37     9    10    1
    38    26    27    1
@<TRIPOS>MOLECULE
*****
 35 38 0 0 0
SMALL
GASTEIGER

@<TRIPOS>ATOM
      1 N          63.6145   88.7464   16.1438 N.3     1  UNL1       -0.2682
      2 C          62.7186   88.1656   17.1975 C.3     1  UNL1        0.0897
      3 C          62.4858   86.6848   17.2510 C.3     1  UNL1        0.0900
      4 N          63.1488   85.7847   16.2509 N.3     1  UNL1       -0.2626
      5 C          64.0447   86.3655   15.1973 C.3     1  UNL1        0.0900
      6 C          64.2776   87.8463   15.1438 C.3     1  UNL1        0.0897
      7 C          63.8474   90.2273   16.0903 C.3     1  UNL1        0.1056
      8 C          64.4591   90.8466   14.8688 C.3     1  UNL1        0.1700
      9 O          65.9471   90.8226   14.6808 O.3     1  UNL1       -0.3793
     10 H          66.3610   90.3730   15.4341 H       1  UNL1        0.2106
     11 C          63.5828   91.4899   13.8352 C.3     1  UNL1        0.2358
     12 O          63.8003   91.1973   12.3802 O.3     1  UNL1       -0.4727
     13 C          58.7367   87.2866    7.8317 C.3     1  UNL1        0.0594
     14 C          59.7909   87.7716    8.7822 C.ar    1  UNL1        0.0886
     15 N          60.1259   89.2049    9.0707 N.ar    1  UNL1       -0.2426
     16 C          61.2373   89.2276   10.0778 C.ar    1  UNL1        0.0905
     17 C          61.9743   90.3573   10.7339 C.ar    1  UNL1        0.0565
     18 C          63.0632   90.0676   11.7240 C.ar    1  UNL1        0.1402
     19 C          63.4151   88.6482   12.0580 C.ar    1  UNL1        0.0375
     20 C          62.6780   87.5185   11.4019 C.ar    1  UNL1        0.0111
     21 C          61.5891   87.8082   10.4118 C.ar    1  UNL1        0.0484
     22 S          60.6952   86.9084    9.6111 S.2     1  UNL1       -0.0708
     23 C          62.9160   84.3038   16.3044 C.3     1  UNL1        0.1588
     24 C          63.2666   83.4464   15.1246 C.2     1  UNL1        0.2425
     25 O          64.6417   82.8587   15.0068 O.2     1  UNL1       -0.2733
     26 N          62.2422   83.1767   14.0627 N.am    1  UNL1       -0.2833
     27 H          61.3397   83.5624   14.1400 H       1  UNL1        0.1549
     28 C          62.5928   82.3193   12.8829 C.ar    1  UNL1        0.0423
     29 C          62.2995   80.8485   12.9110 C.ar    1  UNL1       -0.0087
     30 C          61.6555   80.2351   14.1190 C.3     1  UNL1        0.0323
     31 C          62.6501   79.9911   11.7312 C.ar    1  UNL1       -0.0031
     32 C          63.2940   80.6044   10.5233 C.ar    1  UNL1       -0.0006
     33 C          63.5873   82.0752   10.4951 C.ar    1  UNL1       -0.0031
     34 C          63.2367   82.9326   11.6749 C.ar    1  UNL1       -0.0087
     35 C          63.5300   84.4034   11.6467 C.3     1  UNL1        0.0323
@<TRIPOS>BOND
     1    13    14    1
     2    14    15   ar
     3    15    16   ar
     4    16    17   ar
     5    17    18   ar
     6    18    12    1
     7    12    11    1
     8    11     8    1
     9     8     9    1
    10     8     7    1
    11     7     1    1
    12     1     2    1
    13     2     3    1
    14     3     4    1
    15     4    23    1
    16    23    24    1
    17    24    25    2
    18    24    26   am
    19    26    28    1
    20    28    29   ar
    21    29    30    1
    22    29    31   ar
    23    31    32   ar
    24    32    33   ar
    25    33    34   ar
    26    34    35    1
    27     4     5    1
    28     5     6    1
    29    18    19   ar
    30    19    20   ar
    31    20    21   ar
    32    21    22   ar
    33    22    14   ar
    34    21    16   ar
    35     6     1    1
    36    34    28   ar
    37     9    10    1
    38    26    27    1
@<TRIPOS>MOLECULE
*****
 35 38 0 0 0
SMALL
GASTEIGER

@<TRIPOS>ATOM
      1 N          62.2045   89.7956   12.7891 N.3     1  UNL1       -0.2682
      2 C          62.8843   90.6244   11.7400 C.3     1  UNL1        0.0897
      3 C          64.0646   91.4753   12.1047 C.3     1  UNL1        0.0900
      4 N          64.5649   91.4972   13.5185 N.3     1  UNL1       -0.2626
      5 C          63.8851   90.6684   14.5677 C.3     1  UNL1        0.0900
      6 C          62.7049   89.8175   14.2030 C.3     1  UNL1        0.0897
      7 C          61.0242   88.9447   12.4244 C.3     1  UNL1        0.1056
      8 C          60.2730   89.2094   11.1533 C.3     1  UNL1        0.1700
      9 O          59.6200   90.5416   10.9316 O.3     1  UNL1       -0.3793
     10 H          59.7783   91.1112   11.7006 H       1  UNL1        0.2106
     11 C          60.1747   88.1421   10.1040 C.3     1  UNL1        0.2358
     12 O          61.3966   87.7280    9.3387 O.3     1  UNL1       -0.4727
     13 C          63.8903   81.4103   13.2746 C.3     1  UNL1        0.0594
     14 C          63.5522   82.4989   12.2996 C.ar    1  UNL1        0.0886
     15 N          62.7412   83.7259   12.5943 N.ar    1  UNL1       -0.2426
     16 C          62.6535   84.5369   11.3355 C.ar    1  UNL1        0.0905
     17 C          61.9822   85.8425   11.0275 C.ar    1  UNL1        0.0565
     18 C          62.0678   86.4223    9.6468 C.ar    1  UNL1        0.1402
     19 C          62.8245   85.6966    8.5741 C.ar    1  UNL1        0.0375
     20 C          63.4957   84.3910    8.8821 C.ar    1  UNL1        0.0111
     21 C          63.4102   83.8112   10.2628 C.ar    1  UNL1        0.0484
     22 S          63.9656   82.5517   10.8586 S.2     1  UNL1       -0.0708
     23 C          65.7452   92.3481   13.8833 C.3     1  UNL1        0.1588
     24 C          66.4859   93.0999   12.8173 C.2     1  UNL1        0.2425
     25 O          67.9859   93.1003   12.8044 O.2     1  UNL1       -0.2733
     26 N          65.7266   93.8512   11.7643 N.am    1  UNL1       -0.2833
     27 H          64.7421   93.8509   11.7728 H       1  UNL1        0.1549
     28 C          66.4672   94.6030   10.6983 C.ar    1  UNL1        0.0423
     29 C          66.4621   96.1030   10.6973 C.ar    1  UNL1       -0.0087
     30 C          65.7163   96.8512   11.7622 C.3     1  UNL1        0.0323
     31 C          67.2027   96.8548    9.6313 C.ar    1  UNL1       -0.0031
     32 C          67.9484   96.1066    8.5664 C.ar    1  UNL1       -0.0006
     33 C          67.9535   94.6066    8.5674 C.ar    1  UNL1       -0.0031
     34 C          67.2129   93.8549    9.6334 C.ar    1  UNL1       -0.0087
     35 C          67.2180   92.3548    9.6344 C.3     1  UNL1        0.0323
@<TRIPOS>BOND
     1    13    14    1
     2    14    15   ar
     3    15    16   ar
     4    16    17   ar
     5    17    18   ar
     6    18    12    1
     7    12    11    1
     8    11     8    1
     9     8     9    1
    10     8     7    1
    11     7     1    1
    12     1     2    1
    13     2     3    1
    14     3     4    1
    15     4    23    1
    16    23    24    1
    17    24    25    2
    18    24    26   am
    19    26    28    1
    20    28    29   ar
    21    29    30    1
    22    29    31   ar
    23    31    32   ar
    24    32    33   ar
    25    33    34   ar
    26    34    35    1
    27     4     5    1
    28     5     6    1
    29    18    19   ar
    30    19    20   ar
    31    20    21   ar
    32    21    22   ar
    33    22    14   ar
    34    21    16   ar
    35     6     1    1
    36    34    28   ar
    37     9    10    1
    38    26    27    1
@<TRIPOS>MOLECULE
*****
 35 38 0 0 0
SMALL
GASTEIGER

@<TRIPOS>ATOM
      1 N          59.4930   89.1570    7.0259 N.3     1  UNL1       -0.2682
      2 C          59.1749   87.7525    7.4457 C.3     1  UNL1        0.0897
      3 C          59.4980   87.2942    8.8369 C.3     1  UNL1        0.0900
      4 N          60.1393   88.2403    9.8082 N.3     1  UNL1       -0.2626
      5 C          60.4573   89.6448    9.3884 C.3     1  UNL1        0.0900
      6 C          60.1342   90.1031    7.9972 C.3     1  UNL1        0.0897
      7 C          59.1698   89.6153    5.6346 C.3     1  UNL1        0.1056
      8 C          58.3211   90.8342    5.4247 C.3     1  UNL1        0.1700
      9 O          56.8314   90.7463    5.5770 O.3     1  UNL1       -0.3793
     10 H          56.5834   89.8382    5.8113 H       1  UNL1        0.2106
     11 C          58.9621   92.1410    5.0624 C.3     1  UNL1        0.2358
     12 O          59.0988   92.5355    3.6216 O.3     1  UNL1       -0.4727
     13 C          64.9437   95.4130   -0.7578 C.3     1  UNL1        0.0594
     14 C          64.0269   94.6805    0.1765 C.ar    1  UNL1        0.0886
     15 N          62.5694   94.9663    0.3860 N.ar    1  UNL1       -0.2426
     16 C          62.0484   93.9959    1.4043 C.ar    1  UNL1        0.0905
     17 C          60.6867   93.8043    2.0034 C.ar    1  UNL1        0.0565
     18 C          60.4605   92.7271    3.0224 C.ar    1  UNL1        0.1402
     19 C          61.5960   91.8415    3.4422 C.ar    1  UNL1        0.0375
     20 C          62.9577   92.0331    2.8431 C.ar    1  UNL1        0.0111
     21 C          63.1839   93.1103    1.8241 C.ar    1  UNL1        0.0484
     22 S          64.4067   93.5334    1.0653 S.2     1  UNL1       -0.0708
     23 C          60.4624   87.7820   11.1995 C.3     1  UNL1        0.1588
     24 C          61.6052   86.8385   11.4319 C.2     1  UNL1        0.2425
     25 O          62.8908   87.3467   12.0143 O.2     1  UNL1       -0.2733
     26 N          61.4624   85.3870   11.0819 N.am    1  UNL1       -0.2833
     27 H          60.6186   85.0535   10.6996 H       1  UNL1        0.1549
     28 C          62.6051   84.4435   11.3142 C.ar    1  UNL1        0.0423
     29 C          62.8894   83.9359   12.6968 C.ar    1  UNL1       -0.0087
     30 C          62.0310   84.3719   13.8471 C.3     1  UNL1        0.0323
     31 C          64.0321   82.9924   12.9291 C.ar    1  UNL1       -0.0031
     32 C          64.8906   82.5565   11.7789 C.ar    1  UNL1       -0.0006
     33 C          64.6062   83.0640   10.3964 C.ar    1  UNL1       -0.0031
     34 C          63.4635   84.0075   10.1640 C.ar    1  UNL1       -0.0087
     35 C          63.1792   84.5151    8.7814 C.3     1  UNL1        0.0323
@<TRIPOS>BOND
     1    13    14    1
     2    14    15   ar
     3    15    16   ar
     4    16    17   ar
     5    17    18   ar
     6    18    12    1
     7    12    11    1
     8    11     8    1
     9     8     9    1
    10     8     7    1
    11     7     1    1
    12     1     2    1
    13     2     3    1
    14     3     4    1
    15     4    23    1
    16    23    24    1
    17    24    25    2
    18    24    26   am
    19    26    28    1
    20    28    29   ar
    21    29    30    1
    22    29    31   ar
    23    31    32   ar
    24    32    33   ar
    25    33    34   ar
    26    34    35    1
    27     4     5    1
    28     5     6    1
    29    18    19   ar
    30    19    20   ar
    31    20    21   ar
    32    21    22   ar
    33    22    14   ar
    34    21    16   ar
    35     6     1    1
    36    34    28   ar
    37     9    10    1
    38    26    27    1
@<TRIPOS>MOLECULE
*****
 35 38 0 0 0
SMALL
GASTEIGER

@<TRIPOS>ATOM
      1 N          59.3744   89.0837    6.9338 N.3     1  UNL1       -0.2682
      2 C          59.1104   87.6729    7.3699 C.3     1  UNL1        0.0897
      3 C          59.4926   87.2310    8.7514 C.3     1  UNL1        0.0900
      4 N          60.1389   88.1997    9.6968 N.3     1  UNL1       -0.2626
      5 C          60.4029   89.6104    9.2607 C.3     1  UNL1        0.0900
      6 C          60.0206   90.0524    7.8792 C.3     1  UNL1        0.0897
      7 C          58.9921   89.5256    5.5523 C.3     1  UNL1        0.1056
      8 C          58.2270   90.8011    5.3577 C.3     1  UNL1        0.1700
      9 O          56.7340   90.8097    5.5028 O.3     1  UNL1       -0.3793
     10 H          56.4253   89.9166    5.7220 H       1  UNL1        0.2106
     11 C          58.9548   92.0679    5.0181 C.3     1  UNL1        0.2358
     12 O          59.1242   92.4743    3.5842 O.3     1  UNL1       -0.4727
     13 C          65.0602   95.4429   -0.6079 C.3     1  UNL1        0.0594
     14 C          64.1243   94.6919    0.2921 C.ar    1  UNL1        0.0886
     15 N          62.6614   94.9699    0.4723 N.ar    1  UNL1       -0.2426
     16 C          62.1199   93.9808    1.4615 C.ar    1  UNL1        0.0905
     17 C          60.7453   93.7751    2.0253 C.ar    1  UNL1        0.0565
     18 C          60.4989   92.6800    3.0203 C.ar    1  UNL1        0.1402
     19 C          61.6272   91.7906    3.4514 C.ar    1  UNL1        0.0375
     20 C          63.0018   91.9963    2.8876 C.ar    1  UNL1        0.0111
     21 C          63.2482   93.0914    1.8926 C.ar    1  UNL1        0.0484
     22 S          64.4870   93.5308    1.1699 S.2     1  UNL1       -0.0708
     23 C          60.5212   87.7578   11.0783 C.3     1  UNL1        0.1588
     24 C          61.3568   88.6506   11.9470 C.2     1  UNL1        0.2425
     25 O          60.6959   89.6022   12.8998 O.2     1  UNL1       -0.2733
     26 N          62.8533   88.5918   11.8630 N.am    1  UNL1       -0.2833
     27 H          63.2870   87.9673   11.2376 H       1  UNL1        0.1549
     28 C          63.6889   89.4846   12.7316 C.ar    1  UNL1        0.0423
     29 C          64.2295   88.9720   14.0335 C.ar    1  UNL1       -0.0087
     30 C          63.9345   87.5665   14.4668 C.3     1  UNL1        0.0323
     31 C          65.0651   89.8649   14.9022 C.ar    1  UNL1       -0.0031
     32 C          65.3601   91.2703   14.4690 C.ar    1  UNL1       -0.0006
     33 C          64.8195   91.7829   13.1672 C.ar    1  UNL1       -0.0031
     34 C          63.9839   90.8901   12.2985 C.ar    1  UNL1       -0.0087
     35 C          63.4432   91.4028   10.9965 C.3     1  UNL1        0.0323
@<TRIPOS>BOND
     1    13    14    1
     2    14    15   ar
     3    15    16   ar
     4    16    17   ar
     5    17    18   ar
     6    18    12    1
     7    12    11    1
     8    11     8    1
     9     8     9    1
    10     8     7    1
    11     7     1    1
    12     1     2    1
    13     2     3    1
    14     3     4    1
    15     4    23    1
    16    23    24    1
    17    24    25    2
    18    24    26   am
    19    26    28    1
    20    28    29   ar
    21    29    30    1
    22    29    31   ar
    23    31    32   ar
    24    32    33   ar
    25    33    34   ar
    26    34    35    1
    27     4     5    1
    28     5     6    1
    29    18    19   ar
    30    19    20   ar
    31    20    21   ar
    32    21    22   ar
    33    22    14   ar
    34    21    16   ar
    35     6     1    1
    36    34    28   ar
    37     9    10    1
    38    26    27    1
