@<TRIPOS>MOLECULE
*****
 35 39 0 0 0
SMALL
GASTEIGER

@<TRIPOS>ATOM
      1 C          62.7740   87.3074   11.8280 C.2     1  UNL1        0.2529
      2 O          63.7490   87.7716   12.8691 O.2     1  UNL1       -0.2698
      3 N          61.6486   88.2030   11.4020 N.am    1  UNL1       -0.2722
      4 C          60.6736   87.7388   10.3609 C.3     1  UNL1        0.1257
      5 C          59.5482   88.6344    9.9349 C.3     1  UNL1        0.1637
      6 O          59.3978   89.9942   10.5501 O.3     1  UNL1       -0.3502
      7 C          60.3728   90.4583   11.5912 C.3     1  UNL1        0.1622
      8 C          61.4982   89.5628   12.0172 C.3     1  UNL1        0.1097
      9 C          63.0479   84.4324    9.1059 C.ar    1  UNL1        0.1662
     10 C          63.2252   83.2282    9.9824 C.ar    1  UNL1        0.0408
     11 C          63.2522   83.3837   11.4741 C.ar    1  UNL1        0.0243
     12 C          63.1017   84.7434   12.0893 C.ar    1  UNL1        0.1096
     13 C          62.9244   85.9476   11.2128 C.ar    1  UNL1        0.1033
     14 C          62.8974   85.7921    9.7211 C.ar    1  UNL1        0.1796
     15 F          62.7201   86.9965    8.8446 F       1  UNL1       -0.2008
     16 N          63.1287   84.8988   13.5810 N.ar    1  UNL1       -0.1476
     17 N          64.3157   85.3035   14.4040 N.ar    1  UNL1       -0.1447
     18 C          63.8940   85.3317   15.8432 C.ar    1  UNL1        0.1446
     19 C          62.4463   84.9445   15.9097 C.ar    1  UNL1        0.1446
     20 N          61.9734   84.6769   14.5116 N.ar    1  UNL1       -0.1447
     21 C          61.8728   84.8300    6.8232 C.3     1  UNL1        0.2526
     22 O          63.0209   84.2770    7.6142 O.3     1  UNL1       -0.4692
     23 C          62.4732   90.0270   13.0583 C.3     1  UNL1        0.0510
     24 C          63.6470   90.8728   12.6625 C.ar    1  UNL1        0.0086
     25 C          64.6805   91.2462   13.6834 C.ar    1  UNL1        0.0189
     26 C          65.8544   92.0921   13.2877 C.ar    1  UNL1        0.1027
     27 C          65.9946   92.5645   11.8710 C.ar    1  UNL1        0.0232
     28 C          64.9610   92.1911   10.8500 C.ar    1  UNL1        0.0309
     29 C          63.7872   91.3453   11.2458 C.ar    1  UNL1        0.1363
     30 F          62.7537   90.9719   10.2249 F       1  UNL1       -0.2045
     31 N          66.8879   92.4654   14.3086 N.ar    1  UNL1       -0.1478
     32 N          67.3505   93.8563   14.6269 N.ar    1  UNL1       -0.1447
     33 C          68.3888   93.7640   15.7055 C.ar    1  UNL1        0.1446
     34 C          68.5679   92.3160   16.0538 C.ar    1  UNL1        0.1446
     35 N          67.6403   91.5135   15.1905 N.ar    1  UNL1       -0.1447
@<TRIPOS>BOND
     1    21    22    1
     2    22     9    1
     3     9    10   ar
     4    10    11   ar
     5    11    12   ar
     6    12    16    1
     7    16    17   ar
     8    17    18   ar
     9    18    19   ar
    10    19    20   ar
    11    12    13   ar
    12    13     1    1
    13     1     2    2
    14     1     3   am
    15     3     4    1
    16     4     5    1
    17     5     6    1
    18     6     7    1
    19     7     8    1
    20     8    23    1
    21    23    24    1
    22    24    25   ar
    23    25    26   ar
    24    26    31    1
    25    31    32   ar
    26    32    33   ar
    27    33    34   ar
    28    34    35   ar
    29    26    27   ar
    30    27    28   ar
    31    28    29   ar
    32    29    30    1
    33    13    14   ar
    34    14    15    1
    35    14     9   ar
    36    20    16   ar
    37     8     3    1
    38    29    24   ar
    39    35    31   ar
@<TRIPOS>MOLECULE
*****
 35 39 0 0 0
SMALL
GASTEIGER

@<TRIPOS>ATOM
      1 C          62.9415   86.3471   12.5626 C.2     1  UNL1        0.2529
      2 O          63.5355   87.2692   13.5858 O.2     1  UNL1       -0.2698
      3 N          62.0608   86.8962   11.4796 N.am    1  UNL1       -0.2722
      4 C          61.4668   85.9742   10.4564 C.3     1  UNL1        0.1257
      5 C          60.5861   86.5233    9.3734 C.3     1  UNL1        0.1637
      6 O          60.2994   87.9944    9.3136 O.3     1  UNL1       -0.3502
      7 C          60.8935   88.9165   10.3368 C.3     1  UNL1        0.1622
      8 C          61.7741   88.3674   11.4198 C.3     1  UNL1        0.1097
      9 C          63.7512   82.6348   11.4168 C.ar    1  UNL1        0.1662
     10 C          63.8015   81.9338   12.7420 C.ar    1  UNL1        0.0408
     11 C          63.5651   82.7038   14.0073 C.ar    1  UNL1        0.0243
     12 C          63.2785   84.1749   13.9475 C.ar    1  UNL1        0.1096
     13 C          63.2281   84.8760   12.6224 C.ar    1  UNL1        0.1033
     14 C          63.4645   84.1059   11.3571 C.ar    1  UNL1        0.1796
     15 F          63.4142   84.8070   10.0319 F       1  UNL1       -0.2008
     16 N          63.0421   84.9450   15.2129 N.ar    1  UNL1       -0.1476
     17 N          61.7196   85.1372   15.8941 N.ar    1  UNL1       -0.1447
     18 C          61.9469   85.9691   17.1214 C.ar    1  UNL1        0.1446
     19 C          63.4099   86.2910   17.1988 C.ar    1  UNL1        0.1446
     20 N          64.0867   85.6581   16.0192 N.ar    1  UNL1       -0.1447
     21 C          63.2879   80.5569    9.9276 C.3     1  UNL1        0.2526
     22 O          63.9876   81.8647   10.1515 O.3     1  UNL1       -0.4692
     23 C          62.3681   89.2894   12.4430 C.3     1  UNL1        0.0510
     24 C          63.3572   90.3366   12.0247 C.ar    1  UNL1        0.0086
     25 C          64.4054   90.8062   12.9894 C.ar    1  UNL1        0.0189
     26 C          65.3946   91.8534   12.5711 C.ar    1  UNL1        0.1027
     27 C          65.3356   92.4309   11.1880 C.ar    1  UNL1        0.0232
     28 C          64.2873   91.9613   10.2232 C.ar    1  UNL1        0.0309
     29 C          63.2982   90.9142   10.6416 C.ar    1  UNL1        0.1363
     30 F          62.2500   90.4446    9.6769 F       1  UNL1       -0.2045
     31 N          66.4428   92.3230   13.5358 N.ar    1  UNL1       -0.1478
     32 N          66.2150   93.2154   14.7197 N.ar    1  UNL1       -0.1447
     33 C          67.5342   93.4266   15.4016 C.ar    1  UNL1        0.1446
     34 C          68.5774   92.6646   14.6392 C.ar    1  UNL1        0.1446
     35 N          67.9028   91.9825   13.4861 N.ar    1  UNL1       -0.1447
@<TRIPOS>BOND
     1    21    22    1
     2    22     9    1
     3     9    10   ar
     4    10    11   ar
     5    11    12   ar
     6    12    16    1
     7    16    17   ar
     8    17    18   ar
     9    18    19   ar
    10    19    20   ar
    11    12    13   ar
    12    13     1    1
    13     1     2    2
    14     1     3   am
    15     3     4    1
    16     4     5    1
    17     5     6    1
    18     6     7    1
    19     7     8    1
    20     8    23    1
    21    23    24    1
    22    24    25   ar
    23    25    26   ar
    24    26    31    1
    25    31    32   ar
    26    32    33   ar
    27    33    34   ar
    28    34    35   ar
    29    26    27   ar
    30    27    28   ar
    31    28    29   ar
    32    29    30    1
    33    13    14   ar
    34    14    15    1
    35    14     9   ar
    36    20    16   ar
    37     8     3    1
    38    29    24   ar
    39    35    31   ar
@<TRIPOS>MOLECULE
*****
 35 39 0 0 0
SMALL
GASTEIGER

@<TRIPOS>ATOM
      1 C          62.5703   88.1062   10.8557 C.2     1  UNL1        0.2529
      2 O          62.9838   89.5353   10.6638 O.2     1  UNL1       -0.2698
      3 N          62.9994   87.3598   12.0839 N.am    1  UNL1       -0.2722
      4 C          62.5859   85.9307   12.2758 C.3     1  UNL1        0.1257
      5 C          63.0151   85.1843   13.5042 C.3     1  UNL1        0.1637
      6 O          63.8577   85.8669   14.5405 O.3     1  UNL1       -0.3502
      7 C          64.2712   87.2959   14.3486 C.3     1  UNL1        0.1622
      8 C          63.8421   88.0424   13.1203 C.3     1  UNL1        0.1097
      9 C          61.5018   85.7309    7.8613 C.ar    1  UNL1        0.1662
     10 C          60.0425   86.0584    7.7465 C.ar    1  UNL1        0.0408
     11 C          59.4258   87.0686    8.6681 C.ar    1  UNL1        0.0243
     12 C          60.2684   87.7512    9.7045 C.ar    1  UNL1        0.1096
     13 C          61.7277   87.4236    9.8193 C.ar    1  UNL1        0.1033
     14 C          62.3444   86.4135    8.8977 C.ar    1  UNL1        0.1796
     15 F          63.8037   86.0860    9.0125 F       1  UNL1       -0.2008
     16 N          59.6517   88.7613   10.6261 N.ar    1  UNL1       -0.1476
     17 N          59.5746   90.2403   10.3884 N.ar    1  UNL1       -0.1447
     18 C          58.8791   90.8629   11.5626 C.ar    1  UNL1        0.1446
     19 C          58.5263   89.7686   12.5260 C.ar    1  UNL1        0.1446
     20 N          59.0038   88.4698   11.9472 N.ar    1  UNL1       -0.1447
     21 C          61.3250   84.1692    5.7925 C.3     1  UNL1        0.2526
     22 O          62.1185   84.7208    6.9397 O.3     1  UNL1       -0.4692
     23 C          64.2556   89.4714   12.9284 C.3     1  UNL1        0.0510
     24 C          64.5484   90.3340   14.1201 C.ar    1  UNL1        0.0086
     25 C          65.8545   91.0655   14.2136 C.ar    1  UNL1        0.0189
     26 C          66.1474   91.9281   15.4054 C.ar    1  UNL1        0.1027
     27 C          65.1341   92.0591   16.5036 C.ar    1  UNL1        0.0232
     28 C          63.8279   91.3275   16.4100 C.ar    1  UNL1        0.0309
     29 C          63.5351   90.4650   15.2183 C.ar    1  UNL1        0.1363
     30 F          62.2290   89.7334   15.1248 F       1  UNL1       -0.2045
     31 N          67.4536   92.6597   15.4989 N.ar    1  UNL1       -0.1478
     32 N          67.7375   93.8495   16.3670 N.ar    1  UNL1       -0.1447
     33 C          69.1645   94.2551   16.1454 C.ar    1  UNL1        0.1446
     34 C          69.7626   93.3159   15.1401 C.ar    1  UNL1        0.1446
     35 N          68.7051   92.3299   14.7406 N.ar    1  UNL1       -0.1447
@<TRIPOS>BOND
     1    21    22    1
     2    22     9    1
     3     9    10   ar
     4    10    11   ar
     5    11    12   ar
     6    12    16    1
     7    16    17   ar
     8    17    18   ar
     9    18    19   ar
    10    19    20   ar
    11    12    13   ar
    12    13     1    1
    13     1     2    2
    14     1     3   am
    15     3     4    1
    16     4     5    1
    17     5     6    1
    18     6     7    1
    19     7     8    1
    20     8    23    1
    21    23    24    1
    22    24    25   ar
    23    25    26   ar
    24    26    31    1
    25    31    32   ar
    26    32    33   ar
    27    33    34   ar
    28    34    35   ar
    29    26    27   ar
    30    27    28   ar
    31    28    29   ar
    32    29    30    1
    33    13    14   ar
    34    14    15    1
    35    14     9   ar
    36    20    16   ar
    37     8     3    1
    38    29    24   ar
    39    35    31   ar
@<TRIPOS>MOLECULE
*****
 35 39 0 0 0
SMALL
GASTEIGER

@<TRIPOS>ATOM
      1 C          62.8047   87.2686   11.9902 C.2     1  UNL1        0.2529
      2 O          63.4973   87.4347   13.3104 O.2     1  UNL1       -0.2698
      3 N          61.9813   88.3897   11.4289 N.am    1  UNL1       -0.2722
      4 C          61.2888   88.2236   10.1088 C.3     1  UNL1        0.1257
      5 C          60.4653   89.3448    9.5475 C.3     1  UNL1        0.1637
      6 O          60.3345   90.6320   10.3064 O.3     1  UNL1       -0.3502
      7 C          61.0271   90.7981   11.6265 C.3     1  UNL1        0.1622
      8 C          61.8505   89.6770   12.1878 C.3     1  UNL1        0.1097
      9 C          63.0440   84.7020    8.9727 C.ar    1  UNL1        0.1662
     10 C          63.1973   83.4068    9.7136 C.ar    1  UNL1        0.0408
     11 C          63.2197   83.3989   11.2134 C.ar    1  UNL1        0.0243
     12 C          63.0888   84.6861   11.9723 C.ar    1  UNL1        0.1096
     13 C          62.9356   85.9813   11.2314 C.ar    1  UNL1        0.1033
     14 C          62.9132   85.9892    9.7315 C.ar    1  UNL1        0.1796
     15 F          62.7599   87.2844    8.9906 F       1  UNL1       -0.2008
     16 N          63.1113   84.6782   13.4721 N.ar    1  UNL1       -0.1476
     17 N          61.9111   84.6590   14.3717 N.ar    1  UNL1       -0.1447
     18 C          62.3959   84.6570   15.7913 C.ar    1  UNL1        0.1446
     19 C          63.8956   84.6749   15.7690 C.ar    1  UNL1        0.1446
     20 N          64.3377   84.6880   14.3357 N.ar    1  UNL1       -0.1447
     21 C          61.7197   84.8588    6.7430 C.3     1  UNL1        0.2526
     22 O          63.0216   84.7099    7.4729 O.3     1  UNL1       -0.4692
     23 C          62.5430   89.8431   13.5079 C.3     1  UNL1        0.0510
     24 C          63.7628   90.7099   13.6111 C.ar    1  UNL1        0.0086
     25 C          64.3052   91.3898   12.3891 C.ar    1  UNL1        0.0189
     26 C          65.5251   92.2567   12.4923 C.ar    1  UNL1        0.1027
     27 C          66.2025   92.4435   13.8175 C.ar    1  UNL1        0.0232
     28 C          65.6601   91.7635   15.0396 C.ar    1  UNL1        0.0309
     29 C          64.4403   90.8967   14.9364 C.ar    1  UNL1        0.1363
     30 F          63.8979   90.2167   16.1584 F       1  UNL1       -0.2045
     31 N          66.0675   92.9367   11.2703 N.ar    1  UNL1       -0.1478
     32 N          65.5770   94.2300   10.6900 N.ar    1  UNL1       -0.1447
     33 C          66.4019   94.5354    9.4750 C.ar    1  UNL1        0.1446
     34 C          67.4024   93.4308    9.3044 C.ar    1  UNL1        0.1446
     35 N          67.1957   92.4427   10.4139 N.ar    1  UNL1       -0.1447
@<TRIPOS>BOND
     1    21    22    1
     2    22     9    1
     3     9    10   ar
     4    10    11   ar
     5    11    12   ar
     6    12    16    1
     7    16    17   ar
     8    17    18   ar
     9    18    19   ar
    10    19    20   ar
    11    12    13   ar
    12    13     1    1
    13     1     2    2
    14     1     3   am
    15     3     4    1
    16     4     5    1
    17     5     6    1
    18     6     7    1
    19     7     8    1
    20     8    23    1
    21    23    24    1
    22    24    25   ar
    23    25    26   ar
    24    26    31    1
    25    31    32   ar
    26    32    33   ar
    27    33    34   ar
    28    34    35   ar
    29    26    27   ar
    30    27    28   ar
    31    28    29   ar
    32    29    30    1
    33    13    14   ar
    34    14    15    1
    35    14     9   ar
    36    20    16   ar
    37     8     3    1
    38    29    24   ar
    39    35    31   ar
@<TRIPOS>MOLECULE
*****
 35 39 0 0 0
SMALL
GASTEIGER

@<TRIPOS>ATOM
      1 C          63.4161   88.6108   12.9631 C.2     1  UNL1        0.2529
      2 O          63.6208   89.5664   11.8252 O.2     1  UNL1       -0.2698
      3 N          63.4125   89.1160   14.3754 N.am    1  UNL1       -0.2722
      4 C          63.2078   88.1603   15.5133 C.3     1  UNL1        0.1257
      5 C          63.2042   88.6656   16.9257 C.3     1  UNL1        0.1637
      6 O          63.4053   90.1264   17.2001 O.3     1  UNL1       -0.3502
      7 C          63.6100   91.0821   16.0622 C.3     1  UNL1        0.1622
      8 C          63.6136   90.5769   14.6499 C.3     1  UNL1        0.1097
      9 C          63.8094   84.6672   13.1710 C.ar    1  UNL1        0.1662
     10 C          62.8127   84.2281   12.1397 C.ar    1  UNL1        0.0408
     11 C          62.0171   85.2499   11.3828 C.ar    1  UNL1        0.0243
     12 C          62.2182   86.7108   11.6572 C.ar    1  UNL1        0.1096
     13 C          63.2149   87.1498   12.6886 C.ar    1  UNL1        0.1033
     14 C          64.0106   86.1280   13.4455 C.ar    1  UNL1        0.1796
     15 F          65.0073   86.5672   14.4768 F       1  UNL1       -0.2008
     16 N          61.4226   87.7326   10.9004 N.ar    1  UNL1       -0.1476
     17 N          61.5499   88.0432    9.4384 N.ar    1  UNL1       -0.1447
     18 C          60.5659   89.1258    9.1070 C.ar    1  UNL1        0.1446
     19 C          59.8304   89.4843   10.3642 C.ar    1  UNL1        0.1446
     20 N          60.3599   88.6233   11.4725 N.ar    1  UNL1       -0.1447
     21 C          64.1718   83.2238   15.3006 C.3     1  UNL1        0.2526
     22 O          64.6051   83.6453   13.9279 O.3     1  UNL1       -0.4692
     23 C          63.8184   91.5326   13.5120 C.3     1  UNL1        0.0510
     24 C          65.2071   91.9225   13.1007 C.ar    1  UNL1        0.0086
     25 C          65.4117   92.8803   11.9646 C.ar    1  UNL1        0.0189
     26 C          66.8005   93.2703   11.5532 C.ar    1  UNL1        0.1027
     27 C          67.9847   92.7024   12.2779 C.ar    1  UNL1        0.0232
     28 C          67.7801   91.7445   13.4140 C.ar    1  UNL1        0.0309
     29 C          66.3913   91.3546   13.8254 C.ar    1  UNL1        0.1363
     30 F          66.1867   90.3968   14.9614 F       1  UNL1       -0.2045
     31 N          67.0051   94.2281   10.4172 N.ar    1  UNL1       -0.1478
     32 N          67.4440   93.8682    9.0287 N.ar    1  UNL1       -0.1447
     33 C          67.5169   95.1317    8.2235 C.ar    1  UNL1        0.1446
     34 C          67.1230   96.2725    9.1143 C.ar    1  UNL1        0.1446
     35 N          66.8067   95.7140   10.4701 N.ar    1  UNL1       -0.1447
@<TRIPOS>BOND
     1    21    22    1
     2    22     9    1
     3     9    10   ar
     4    10    11   ar
     5    11    12   ar
     6    12    16    1
     7    16    17   ar
     8    17    18   ar
     9    18    19   ar
    10    19    20   ar
    11    12    13   ar
    12    13     1    1
    13     1     2    2
    14     1     3   am
    15     3     4    1
    16     4     5    1
    17     5     6    1
    18     6     7    1
    19     7     8    1
    20     8    23    1
    21    23    24    1
    22    24    25   ar
    23    25    26   ar
    24    26    31    1
    25    31    32   ar
    26    32    33   ar
    27    33    34   ar
    28    34    35   ar
    29    26    27   ar
    30    27    28   ar
    31    28    29   ar
    32    29    30    1
    33    13    14   ar
    34    14    15    1
    35    14     9   ar
    36    20    16   ar
    37     8     3    1
    38    29    24   ar
    39    35    31   ar
@<TRIPOS>MOLECULE
*****
 35 39 0 0 0
SMALL
GASTEIGER

@<TRIPOS>ATOM
      1 C          62.3898   87.9323   11.0257 C.2     1  UNL1        0.2529
      2 O          63.4920   88.5911   10.2504 O.2     1  UNL1       -0.2698
      3 N          61.1546   88.7066   11.3787 N.am    1  UNL1       -0.2722
      4 C          60.0524   88.0478   12.1540 C.3     1  UNL1        0.1257
      5 C          58.8172   88.8222   12.5071 C.3     1  UNL1        0.1637
      6 O          58.6842   90.2554   12.0848 O.3     1  UNL1       -0.3502
      7 C          59.7864   90.9142   11.3095 C.3     1  UNL1        0.1622
      8 C          61.0216   90.1399   10.9565 C.3     1  UNL1        0.1097
      9 C          63.3655   84.7229   13.1465 C.ar    1  UNL1        0.1662
     10 C          62.7889   83.6328   12.2925 C.ar    1  UNL1        0.0408
     11 C          62.0793   83.9759   11.0163 C.ar    1  UNL1        0.0243
     12 C          61.9462   85.4090   10.5940 C.ar    1  UNL1        0.1096
     13 C          62.5228   86.4991   11.4480 C.ar    1  UNL1        0.1033
     14 C          63.2325   86.1560   12.7242 C.ar    1  UNL1        0.1796
     15 F          63.8091   87.2462   13.5781 F       1  UNL1       -0.2008
     16 N          61.2366   85.7521    9.3178 N.ar    1  UNL1       -0.1476
     17 N          61.7085   85.4267    7.9316 N.ar    1  UNL1       -0.1447
     18 C          60.6940   85.9543    6.9608 C.ar    1  UNL1        0.1446
     19 C          59.5951   86.6057    7.7470 C.ar    1  UNL1        0.1446
     20 N          59.9305   86.4807    9.2037 N.ar    1  UNL1       -0.1447
     21 C          63.5189   84.8405   15.7373 C.3     1  UNL1        0.2526
     22 O          64.0751   84.3798   14.4227 O.3     1  UNL1       -0.4692
     23 C          62.1238   90.7987   10.1812 C.3     1  UNL1        0.0510
     24 C          63.2810   91.4214   10.9044 C.ar    1  UNL1        0.0086
     25 C          64.2033   92.3560   10.1793 C.ar    1  UNL1        0.0189
     26 C          65.3605   92.9788   10.9025 C.ar    1  UNL1        0.1027
     27 C          65.5954   92.6670   12.3508 C.ar    1  UNL1        0.0232
     28 C          64.6730   91.7323   13.0759 C.ar    1  UNL1        0.0309
     29 C          63.5158   91.1096   12.3527 C.ar    1  UNL1        0.1363
     30 F          62.5935   90.1749   13.0778 F       1  UNL1       -0.2045
     31 N          66.2828   93.9134   10.1774 N.ar    1  UNL1       -0.1478
     32 N          67.4143   93.5136    9.2775 N.ar    1  UNL1       -0.1447
     33 C          68.0664   94.7650    8.7688 C.ar    1  UNL1        0.1446
     34 C          67.3380   95.9383    9.3544 C.ar    1  UNL1        0.1446
     35 N          66.2357   95.4119   10.2250 N.ar    1  UNL1       -0.1447
@<TRIPOS>BOND
     1    21    22    1
     2    22     9    1
     3     9    10   ar
     4    10    11   ar
     5    11    12   ar
     6    12    16    1
     7    16    17   ar
     8    17    18   ar
     9    18    19   ar
    10    19    20   ar
    11    12    13   ar
    12    13     1    1
    13     1     2    2
    14     1     3   am
    15     3     4    1
    16     4     5    1
    17     5     6    1
    18     6     7    1
    19     7     8    1
    20     8    23    1
    21    23    24    1
    22    24    25   ar
    23    25    26   ar
    24    26    31    1
    25    31    32   ar
    26    32    33   ar
    27    33    34   ar
    28    34    35   ar
    29    26    27   ar
    30    27    28   ar
    31    28    29   ar
    32    29    30    1
    33    13    14   ar
    34    14    15    1
    35    14     9   ar
    36    20    16   ar
    37     8     3    1
    38    29    24   ar
    39    35    31   ar
@<TRIPOS>MOLECULE
*****
 35 39 0 0 0
SMALL
GASTEIGER

@<TRIPOS>ATOM
      1 C          61.9302   88.5789   10.2013 C.2     1  UNL1        0.2529
      2 O          63.3962   88.7054    9.9098 O.2     1  UNL1       -0.2698
      3 N          61.3963   88.9732   11.5464 N.am    1  UNL1       -0.2722
      4 C          59.9304   88.8467   11.8379 C.3     1  UNL1        0.1257
      5 C          59.3965   89.2410   13.1832 C.3     1  UNL1        0.1637
      6 O          60.3285   89.7617   14.2368 O.3     1  UNL1       -0.3502
      7 C          61.7944   89.8882   13.9453 C.3     1  UNL1        0.1622
      8 C          62.3284   89.4939   12.6001 C.3     1  UNL1        0.1097
      9 C          59.1675   88.4834    7.3537 C.ar    1  UNL1        0.1662
     10 C          59.1342   87.0169    7.0403 C.ar    1  UNL1        0.0408
     11 C          60.0328   86.0711    7.7804 C.ar    1  UNL1        0.0243
     12 C          60.9648   86.5917    8.8341 C.ar    1  UNL1        0.1096
     13 C          60.9982   88.0582    9.1476 C.ar    1  UNL1        0.1033
     14 C          60.0996   89.0040    8.4074 C.ar    1  UNL1        0.1796
     15 F          60.1330   90.4706    8.7209 F       1  UNL1       -0.2008
     16 N          61.8635   85.6459    9.5743 N.ar    1  UNL1       -0.1476
     17 N          63.0370   84.9110    8.9973 N.ar    1  UNL1       -0.1447
     18 C          63.6452   84.0798   10.0878 C.ar    1  UNL1        0.1446
     19 C          62.8476   84.3010   11.3388 C.ar    1  UNL1        0.1446
     20 N          61.7465   85.2689   11.0214 N.ar    1  UNL1       -0.1447
     21 C          58.8551   90.4375    5.6704 C.3     1  UNL1        0.2526
     22 O          58.2689   89.4292    6.6136 O.3     1  UNL1       -0.4692
     23 C          63.7943   89.6203   12.3086 C.3     1  UNL1        0.0510
     24 C          64.5730   90.7750   12.8658 C.ar    1  UNL1        0.0086
     25 C          64.9328   91.9327   11.9826 C.ar    1  UNL1        0.0189
     26 C          65.7115   93.0875   12.5398 C.ar    1  UNL1        0.1027
     27 C          66.1303   93.0843   13.9802 C.ar    1  UNL1        0.0232
     28 C          65.7704   91.9264   14.8633 C.ar    1  UNL1        0.0309
     29 C          64.9918   90.7718   14.3061 C.ar    1  UNL1        0.1363
     30 F          64.6319   89.6140   15.1893 F       1  UNL1       -0.2045
     31 N          66.0713   94.2452   11.6566 N.ar    1  UNL1       -0.1478
     32 N          66.0638   95.6919   12.0527 N.ar    1  UNL1       -0.1447
     33 C          66.4897   96.5004   10.8632 C.ar    1  UNL1        0.1446
     34 C          66.7605   95.5534    9.7319 C.ar    1  UNL1        0.1446
     35 N          66.5019   94.1596   10.2223 N.ar    1  UNL1       -0.1447
@<TRIPOS>BOND
     1    21    22    1
     2    22     9    1
     3     9    10   ar
     4    10    11   ar
     5    11    12   ar
     6    12    16    1
     7    16    17   ar
     8    17    18   ar
     9    18    19   ar
    10    19    20   ar
    11    12    13   ar
    12    13     1    1
    13     1     2    2
    14     1     3   am
    15     3     4    1
    16     4     5    1
    17     5     6    1
    18     6     7    1
    19     7     8    1
    20     8    23    1
    21    23    24    1
    22    24    25   ar
    23    25    26   ar
    24    26    31    1
    25    31    32   ar
    26    32    33   ar
    27    33    34   ar
    28    34    35   ar
    29    26    27   ar
    30    27    28   ar
    31    28    29   ar
    32    29    30    1
    33    13    14   ar
    34    14    15    1
    35    14     9   ar
    36    20    16   ar
    37     8     3    1
    38    29    24   ar
    39    35    31   ar
@<TRIPOS>MOLECULE
*****
 35 39 0 0 0
SMALL
GASTEIGER

@<TRIPOS>ATOM
      1 C          62.9503   89.5489   10.9683 C.2     1  UNL1        0.2529
      2 O          63.4853   88.7374    9.8259 O.2     1  UNL1       -0.2698
      3 N          61.5766   89.2745   11.5047 N.am    1  UNL1       -0.2722
      4 C          61.0416   90.0860   12.6471 C.3     1  UNL1        0.1257
      5 C          59.6679   89.8115   13.1834 C.3     1  UNL1        0.1637
      6 O          58.8292   88.7256   12.5773 O.3     1  UNL1       -0.3502
      7 C          59.3643   87.9141   11.4349 C.3     1  UNL1        0.1622
      8 C          60.7379   88.1885   10.8985 C.3     1  UNL1        0.1097
      9 C          64.9331   92.9604   11.3930 C.ar    1  UNL1        0.1662
     10 C          65.4663   92.8068   12.7865 C.ar    1  UNL1        0.0408
     11 C          65.1609   91.5672   13.5740 C.ar    1  UNL1        0.0243
     12 C          64.3223   90.4812   12.9680 C.ar    1  UNL1        0.1096
     13 C          63.7890   90.6349   11.5744 C.ar    1  UNL1        0.1033
     14 C          64.0944   91.8745   10.7869 C.ar    1  UNL1        0.1796
     15 F          63.5611   92.0281    9.3933 F       1  UNL1       -0.2008
     16 N          64.0169   89.2416   13.7555 N.ar    1  UNL1       -0.1476
     17 N          64.0285   87.8372   13.2287 N.ar    1  UNL1       -0.1447
     18 C          63.6650   86.9164   14.3557 C.ar    1  UNL1        0.1446
     19 C          63.4287   87.7517   15.5789 C.ar    1  UNL1        0.1446
     20 N          63.6462   89.1888   15.2080 N.ar    1  UNL1       -0.1447
     21 C          66.3113   95.1392   11.0713 C.3     1  UNL1        0.2526
     22 O          65.2385   94.2000   10.6055 O.3     1  UNL1       -0.4692
     23 C          61.2730   87.3770    9.7561 C.3     1  UNL1        0.0510
     24 C          62.0418   86.1177   10.0260 C.ar    1  UNL1        0.0086
     25 C          62.2331   85.6434   11.4361 C.ar    1  UNL1        0.0189
     26 C          63.0020   84.3840   11.7060 C.ar    1  UNL1        0.1027
     27 C          63.5796   83.5989   10.5658 C.ar    1  UNL1        0.0232
     28 C          63.3883   84.0733    9.1556 C.ar    1  UNL1        0.0309
     29 C          62.6194   85.3326    8.8857 C.ar    1  UNL1        0.1363
     30 F          62.4281   85.8069    7.4756 F       1  UNL1       -0.2045
     31 N          63.1933   83.9097   13.1161 N.ar    1  UNL1       -0.1478
     32 N          64.5064   83.5999   13.7716 N.ar    1  UNL1       -0.1447
     33 C          64.2298   83.1607   15.1789 C.ar    1  UNL1        0.1446
     34 C          62.7456   83.1990   15.3932 C.ar    1  UNL1        0.1446
     35 N          62.1051   83.6620   14.1183 N.ar    1  UNL1       -0.1447
@<TRIPOS>BOND
     1    21    22    1
     2    22     9    1
     3     9    10   ar
     4    10    11   ar
     5    11    12   ar
     6    12    16    1
     7    16    17   ar
     8    17    18   ar
     9    18    19   ar
    10    19    20   ar
    11    12    13   ar
    12    13     1    1
    13     1     2    2
    14     1     3   am
    15     3     4    1
    16     4     5    1
    17     5     6    1
    18     6     7    1
    19     7     8    1
    20     8    23    1
    21    23    24    1
    22    24    25   ar
    23    25    26   ar
    24    26    31    1
    25    31    32   ar
    26    32    33   ar
    27    33    34   ar
    28    34    35   ar
    29    26    27   ar
    30    27    28   ar
    31    28    29   ar
    32    29    30    1
    33    13    14   ar
    34    14    15    1
    35    14     9   ar
    36    20    16   ar
    37     8     3    1
    38    29    24   ar
    39    35    31   ar
@<TRIPOS>MOLECULE
*****
 35 39 0 0 0
SMALL
GASTEIGER

@<TRIPOS>ATOM
      1 C          63.1810   87.9432   12.6510 C.2     1  UNL1        0.2529
      2 O          63.1840   88.8178   11.4323 O.2     1  UNL1       -0.2698
      3 N          63.2358   88.5602   14.0170 N.am    1  UNL1       -0.2722
      4 C          63.2327   87.6856   15.2357 C.3     1  UNL1        0.1257
      5 C          63.2876   88.3027   16.6018 C.3     1  UNL1        0.1637
      6 O          63.3455   89.7942   16.7493 O.3     1  UNL1       -0.3502
      7 C          63.3486   90.6688   15.5307 C.3     1  UNL1        0.1622
      8 C          63.2937   90.0518   14.1646 C.3     1  UNL1        0.1097
      9 C          63.9180   84.0864   13.2275 C.ar    1  UNL1        0.1662
     10 C          63.0073   83.4684   12.2085 C.ar    1  UNL1        0.0408
     11 C          62.1544   84.3419   11.3370 C.ar    1  UNL1        0.0243
     12 C          62.2122   85.8334   11.4844 C.ar    1  UNL1        0.1096
     13 C          63.1230   86.4515   12.5034 C.ar    1  UNL1        0.1033
     14 C          63.9759   85.5780   13.3750 C.ar    1  UNL1        0.1796
     15 F          64.8867   86.1962   14.3940 F       1  UNL1       -0.2008
     16 N          61.3594   86.7069   10.6129 N.ar    1  UNL1       -0.1476
     17 N          60.2710   87.6264   11.0820 N.ar    1  UNL1       -0.1447
     18 C          59.6841   88.3021    9.8783 C.ar    1  UNL1        0.1446
     19 C          60.4097   87.8002    8.6652 C.ar    1  UNL1        0.1446
     20 N          61.4450   86.8144    9.1192 N.ar    1  UNL1       -0.1447
     21 C          64.4382   83.0504   15.5526 C.3     1  UNL1        0.2526
     22 O          64.7709   83.2129   14.0990 O.3     1  UNL1       -0.4692
     23 C          63.2968   90.9264   12.9459 C.3     1  UNL1        0.0510
     24 C          64.5461   91.6557   12.5493 C.ar    1  UNL1        0.0086
     25 C          65.5845   91.9809   13.5818 C.ar    1  UNL1        0.0189
     26 C          66.8338   92.7103   13.1852 C.ar    1  UNL1        0.1027
     27 C          67.0447   93.1144   11.7562 C.ar    1  UNL1        0.0232
     28 C          66.0063   92.7892   10.7237 C.ar    1  UNL1        0.0309
     29 C          64.7570   92.0599   11.1203 C.ar    1  UNL1        0.1363
     30 F          63.7186   91.7347   10.0878 F       1  UNL1       -0.2045
     31 N          67.8722   93.0354   14.2177 N.ar    1  UNL1       -0.1478
     32 N          69.2810   92.5210   14.2437 N.ar    1  UNL1       -0.1447
     33 C          69.9636   93.0997   15.4475 C.ar    1  UNL1        0.1446
     34 C          68.9766   93.9719   16.1655 C.ar    1  UNL1        0.1446
     35 N          67.6841   93.9321   15.4054 N.ar    1  UNL1       -0.1447
@<TRIPOS>BOND
     1    21    22    1
     2    22     9    1
     3     9    10   ar
     4    10    11   ar
     5    11    12   ar
     6    12    16    1
     7    16    17   ar
     8    17    18   ar
     9    18    19   ar
    10    19    20   ar
    11    12    13   ar
    12    13     1    1
    13     1     2    2
    14     1     3   am
    15     3     4    1
    16     4     5    1
    17     5     6    1
    18     6     7    1
    19     7     8    1
    20     8    23    1
    21    23    24    1
    22    24    25   ar
    23    25    26   ar
    24    26    31    1
    25    31    32   ar
    26    32    33   ar
    27    33    34   ar
    28    34    35   ar
    29    26    27   ar
    30    27    28   ar
    31    28    29   ar
    32    29    30    1
    33    13    14   ar
    34    14    15    1
    35    14     9   ar
    36    20    16   ar
    37     8     3    1
    38    29    24   ar
    39    35    31   ar
