@<TRIPOS>MOLECULE
*****
 28 30 0 0 0
SMALL
GASTEIGER

@<TRIPOS>ATOM
      1 C          62.9965   89.2918   12.1354 C.2     1  UNL1        0.0731
      2 C          63.7840   89.7408   13.3304 C.2     1  UNL1        0.0530
      3 N          64.3084   88.7293   14.3062 N.pl3   1  UNL1       -0.3173
      4 C          64.0453   87.2690   14.0868 C.2     1  UNL1        0.0317
      5 C          64.5697   86.2576   15.0625 C.3     1  UNL1        0.0475
      6 C          63.2578   86.8201   12.8917 C.2     1  UNL1        0.0635
      7 C          62.7334   87.8315   11.9160 C.3     1  UNL1        0.0855
      8 H          64.8253   89.0240   15.0905 H       1  UNL1        0.1517
      9 C          61.9458   87.3825   10.7209 C.ar    1  UNL1       -0.0026
     10 C          62.6466   86.7488    9.5559 C.ar    1  UNL1       -0.0005
     11 C          61.8591   86.2999    8.3608 C.ar    1  UNL1        0.0294
     12 C          60.3707   86.4846    8.3307 C.ar    1  UNL1        0.1410
     13 F          59.5833   86.0356    7.1357 F       1  UNL1       -0.2041
     14 C          59.6700   87.1183    9.4958 C.ar    1  UNL1        0.0407
     15 C          60.4576   87.5673   10.6909 C.ar    1  UNL1        0.0566
     16 CL         59.7568   88.2010   11.8560 Cl      1  UNL1       -0.0825
     17 C          62.4721   90.3033   11.1597 C.2     1  UNL1        0.3389
     18 O          61.0633   90.8036   11.2824 O.2     1  UNL1       -0.2452
     19 C          64.3027   91.9476   10.3262 C.3     1  UNL1        0.2559
     20 O          63.3564   90.8144   10.0612 O.3     1  UNL1       -0.4415
     21 C          62.9946   85.3597   12.6723 C.1     1  UNL1        0.0976
     22 N          62.7315   83.8994   12.4529 N.1     1  UNL1       -0.1911
     23 C          64.0472   91.2012   13.5498 C.3     1  UNL1        0.1716
     24 N          64.5438   91.6820   14.8810 N.ar    1  UNL1       -0.2049
     25 C          65.9144   92.2190   15.1692 C.ar    1  UNL1        0.2218
     26 N          65.9747   92.5793   16.6240 N.ar    1  UNL1       -0.1048
     27 N          64.6413   92.2649   17.2350 N.ar    1  UNL1       -0.0225
     28 N          63.7570   91.7104   16.1578 N.ar    1  UNL1       -0.0425
@<TRIPOS>BOND
     1    19    20    1
     2    20    17    1
     3    17    18    2
     4    17     1    1
     5     1     2    2
     6     2    23    1
     7    23    24    1
     8    24    25   ar
     9    25    26   ar
    10    26    27   ar
    11    27    28   ar
    12     2     3    1
    13     3     4    1
    14     4     5    1
    15     4     6    2
    16     6    21    1
    17    21    22    3
    18     6     7    1
    19     7     9    1
    20     9    10   ar
    21    10    11   ar
    22    11    12   ar
    23    12    13    1
    24    12    14   ar
    25    14    15   ar
    26    15    16    1
    27     7     1    1
    28    15     9   ar
    29    28    24   ar
    30     3     8    1
@<TRIPOS>MOLECULE
*****
 28 30 0 0 0
SMALL
GASTEIGER

@<TRIPOS>ATOM
      1 C          63.7508   86.0573   13.5669 C.2     1  UNL1        0.0731
      2 C          63.8462   87.5447   13.7354 C.2     1  UNL1        0.0530
      3 N          63.2322   88.4561   12.7144 N.pl3   1  UNL1       -0.3173
      4 C          62.5228   87.8800   11.5249 C.2     1  UNL1        0.0317
      5 C          61.9088   88.7914   10.5040 C.3     1  UNL1        0.0475
      6 C          62.4274   86.3926   11.3565 C.2     1  UNL1        0.0635
      7 C          63.0414   85.4812   12.3774 C.3     1  UNL1        0.0855
      8 H          63.2949   89.4323   12.8250 H       1  UNL1        0.1517
      9 C          62.9459   83.9937   12.2089 C.ar    1  UNL1       -0.0026
     10 C          62.1709   83.1751   13.1984 C.ar    1  UNL1       -0.0005
     11 C          62.0754   81.6876   13.0299 C.ar    1  UNL1        0.0294
     12 C          62.7550   81.0188   11.8719 C.ar    1  UNL1        0.1410
     13 F          62.6595   79.5314   11.7034 F       1  UNL1       -0.2041
     14 C          63.5299   81.8375   10.8824 C.ar    1  UNL1        0.0407
     15 C          63.6254   83.3250   11.0509 C.ar    1  UNL1        0.0566
     16 CL         64.4004   84.1437   10.0614 Cl      1  UNL1       -0.0825
     17 C          64.3648   85.1459   14.5878 C.2     1  UNL1        0.3389
     18 O          65.5832   84.3430   14.2403 O.2     1  UNL1       -0.2452
     19 C          62.2712   85.0978   16.1256 C.3     1  UNL1        0.2559
     20 O          63.7605   85.0374   15.9564 O.3     1  UNL1       -0.4415
     21 C          61.7179   85.8165   10.1670 C.1     1  UNL1        0.0976
     22 N          61.0084   85.2404    8.9776 N.1     1  UNL1       -0.1911
     23 C          64.5557   88.1208   14.9249 C.3     1  UNL1        0.1716
     24 N          64.3456   89.5578   15.3000 N.ar    1  UNL1       -0.2049
     25 C          65.1422   90.7255   14.7982 C.ar    1  UNL1        0.2218
     26 N          64.5909   91.9689   15.4309 N.ar    1  UNL1       -0.1048
     27 N          63.4536   91.5695   16.3237 N.ar    1  UNL1       -0.0225
     28 N          63.3020   90.0794   16.2428 N.ar    1  UNL1       -0.0425
@<TRIPOS>BOND
     1    19    20    1
     2    20    17    1
     3    17    18    2
     4    17     1    1
     5     1     2    2
     6     2    23    1
     7    23    24    1
     8    24    25   ar
     9    25    26   ar
    10    26    27   ar
    11    27    28   ar
    12     2     3    1
    13     3     4    1
    14     4     5    1
    15     4     6    2
    16     6    21    1
    17    21    22    3
    18     6     7    1
    19     7     9    1
    20     9    10   ar
    21    10    11   ar
    22    11    12   ar
    23    12    13    1
    24    12    14   ar
    25    14    15   ar
    26    15    16    1
    27     7     1    1
    28    15     9   ar
    29    28    24   ar
    30     3     8    1
@<TRIPOS>MOLECULE
*****
 28 30 0 0 0
SMALL
GASTEIGER

@<TRIPOS>ATOM
      1 C          63.9659   86.9560   13.9263 C.2     1  UNL1        0.0731
      2 C          63.9400   88.4503   13.7981 C.2     1  UNL1        0.0530
      3 N          63.2669   89.0905   12.6204 N.pl3   1  UNL1       -0.3173
      4 C          62.6195   88.2364   11.5709 C.2     1  UNL1        0.0317
      5 C          61.9464   88.8766   10.3932 C.3     1  UNL1        0.0475
      6 C          62.6454   86.7422   11.6990 C.2     1  UNL1        0.0635
      7 C          63.3186   86.1020   12.8767 C.3     1  UNL1        0.0855
      8 H          63.2499   90.0712   12.5363 H       1  UNL1        0.1517
      9 C          63.3444   84.6076   13.0049 C.ar    1  UNL1       -0.0026
     10 C          64.2781   83.7980   12.1548 C.ar    1  UNL1       -0.0005
     11 C          64.3039   82.3037   12.2829 C.ar    1  UNL1        0.0294
     12 C          63.3961   81.6190   13.2612 C.ar    1  UNL1        0.1410
     13 F          63.4219   80.1247   13.3893 F       1  UNL1       -0.2041
     14 C          62.4624   82.4286   14.1113 C.ar    1  UNL1        0.0407
     15 C          62.4365   83.9230   13.9831 C.ar    1  UNL1        0.0566
     16 CL         61.5028   84.7326   14.8333 Cl      1  UNL1       -0.0825
     17 C          64.6390   86.3158   15.1040 C.2     1  UNL1        0.3389
     18 O          66.0988   85.9767   15.0405 O.2     1  UNL1       -0.2452
     19 C          63.0729   87.1031   17.0216 C.3     1  UNL1        0.2559
     20 O          63.8525   86.0146   16.3451 O.3     1  UNL1       -0.4415
     21 C          61.9980   85.8880   10.6495 C.1     1  UNL1        0.0976
     22 N          61.3507   85.0340    9.6000 N.1     1  UNL1       -0.1911
     23 C          64.5874   89.3044   14.8476 C.3     1  UNL1        0.1716
     24 N          65.0193   90.7020   14.5158 N.ar    1  UNL1       -0.2049
     25 C          65.4917   91.7348   15.4955 C.ar    1  UNL1        0.2218
     26 N          65.8191   92.9833   14.7312 N.ar    1  UNL1       -0.1048
     27 N          65.5489   92.7220   13.2790 N.ar    1  UNL1       -0.0225
     28 N          65.0547   91.3121   13.1459 N.ar    1  UNL1       -0.0425
@<TRIPOS>BOND
     1    19    20    1
     2    20    17    1
     3    17    18    2
     4    17     1    1
     5     1     2    2
     6     2    23    1
     7    23    24    1
     8    24    25   ar
     9    25    26   ar
    10    26    27   ar
    11    27    28   ar
    12     2     3    1
    13     3     4    1
    14     4     5    1
    15     4     6    2
    16     6    21    1
    17    21    22    3
    18     6     7    1
    19     7     9    1
    20     9    10   ar
    21    10    11   ar
    22    11    12   ar
    23    12    13    1
    24    12    14   ar
    25    14    15   ar
    26    15    16    1
    27     7     1    1
    28    15     9   ar
    29    28    24   ar
    30     3     8    1
@<TRIPOS>MOLECULE
*****
 28 30 0 0 0
SMALL
GASTEIGER

@<TRIPOS>ATOM
      1 C          62.8555   88.4542   11.8570 C.2     1  UNL1        0.0731
      2 C          63.7466   88.6872   13.0408 C.2     1  UNL1        0.0530
      3 N          64.2296   87.5247   13.8565 N.pl3   1  UNL1       -0.3173
      4 C          63.8214   86.1291   13.4882 C.2     1  UNL1        0.0317
      5 C          64.3043   84.9665   14.3038 C.3     1  UNL1        0.0475
      6 C          62.9302   85.8960   12.3044 C.2     1  UNL1        0.0635
      7 C          62.4473   87.0586   11.4888 C.3     1  UNL1        0.0855
      8 H          64.8145   87.6777   14.6335 H       1  UNL1        0.1517
      9 C          61.5561   86.8255   10.3049 C.ar    1  UNL1       -0.0026
     10 C          60.1316   87.2945   10.3346 C.ar    1  UNL1       -0.0005
     11 C          59.2404   87.0615    9.1508 C.ar    1  UNL1        0.0294
     12 C          59.7737   86.3593    7.9372 C.ar    1  UNL1        0.1410
     13 F          58.8825   86.1262    6.7534 F       1  UNL1       -0.2041
     14 C          61.1982   85.8903    7.9075 C.ar    1  UNL1        0.0407
     15 C          62.0894   86.1234    9.0914 C.ar    1  UNL1        0.0566
     16 CL         63.5138   85.6543    9.0618 Cl      1  UNL1       -0.0825
     17 C          62.3725   89.6168   11.0414 C.2     1  UNL1        0.3389
     18 O          62.9743   89.8898    9.6949 O.2     1  UNL1       -0.2452
     19 C          59.9480   90.5394   10.8985 C.3     1  UNL1        0.2559
     20 O          61.2877   90.5063   11.5723 O.3     1  UNL1       -0.4415
     21 C          62.5220   84.5004   11.9361 C.1     1  UNL1        0.0976
     22 N          62.1137   83.1048   11.5679 N.1     1  UNL1       -0.1911
     23 C          64.1548   90.0829   13.4091 C.3     1  UNL1        0.1716
     24 N          63.9028   90.5969   14.7956 N.ar    1  UNL1       -0.2049
     25 C          64.4968   91.8354   15.3983 C.ar    1  UNL1        0.2218
     26 N          63.9736   91.9666   16.7979 N.ar    1  UNL1       -0.1048
     27 N          63.0562   90.8091   17.0603 N.ar    1  UNL1       -0.0225
     28 N          63.0124   89.9626   15.8227 N.ar    1  UNL1       -0.0425
@<TRIPOS>BOND
     1    19    20    1
     2    20    17    1
     3    17    18    2
     4    17     1    1
     5     1     2    2
     6     2    23    1
     7    23    24    1
     8    24    25   ar
     9    25    26   ar
    10    26    27   ar
    11    27    28   ar
    12     2     3    1
    13     3     4    1
    14     4     5    1
    15     4     6    2
    16     6    21    1
    17    21    22    3
    18     6     7    1
    19     7     9    1
    20     9    10   ar
    21    10    11   ar
    22    11    12   ar
    23    12    13    1
    24    12    14   ar
    25    14    15   ar
    26    15    16    1
    27     7     1    1
    28    15     9   ar
    29    28    24   ar
    30     3     8    1
@<TRIPOS>MOLECULE
*****
 28 30 0 0 0
SMALL
GASTEIGER

@<TRIPOS>ATOM
      1 C          63.2547   87.0364   12.7021 C.2     1  UNL1        0.0731
      2 C          64.0060   87.6459   13.8484 C.2     1  UNL1        0.0530
      3 N          64.2979   89.1172   13.8562 N.pl3   1  UNL1       -0.3173
      4 C          63.8385   89.9790   12.7178 C.2     1  UNL1        0.0317
      5 C          64.1304   91.4503   12.7256 C.3     1  UNL1        0.0475
      6 C          63.0872   89.3695   11.5715 C.2     1  UNL1        0.0635
      7 C          62.7953   87.8982   11.5636 C.3     1  UNL1        0.0855
      8 H          64.7910   89.5172   14.6086 H       1  UNL1        0.1517
      9 C          62.0440   87.2888   10.4172 C.ar    1  UNL1       -0.0026
     10 C          62.7781   86.4981    9.3751 C.ar    1  UNL1       -0.0005
     11 C          62.0268   85.8887    8.2288 C.ar    1  UNL1        0.0294
     12 C          60.5414   86.0699    8.1245 C.ar    1  UNL1        0.1410
     13 F          59.7902   85.4604    6.9781 F       1  UNL1       -0.2041
     14 C          59.8073   86.8605    9.1666 C.ar    1  UNL1        0.0407
     15 C          60.5587   87.4700   10.3130 C.ar    1  UNL1        0.0566
     16 CL         59.8246   88.2606   11.3551 Cl      1  UNL1       -0.0825
     17 C          62.9628   85.5651   12.6942 C.2     1  UNL1        0.3389
     18 O          61.6613   85.0558   13.2388 O.2     1  UNL1       -0.2452
     19 C          64.3481   83.3791   12.9234 C.3     1  UNL1        0.2559
     20 O          63.9725   84.6031   12.1419 O.3     1  UNL1       -0.4415
     21 C          62.6278   90.2314   10.4329 C.1     1  UNL1        0.0976
     22 N          62.1684   91.0932    9.2944 N.1     1  UNL1       -0.1911
     23 C          64.4654   86.7840   14.9869 C.3     1  UNL1        0.1716
     24 N          63.5301   86.4742   16.1179 N.ar    1  UNL1       -0.2049
     25 C          63.1752   87.3964   17.2464 C.ar    1  UNL1        0.2218
     26 N          62.2113   86.6799   18.1449 N.ar    1  UNL1       -0.1048
     27 N          61.9704   85.3147   17.5718 N.ar    1  UNL1       -0.0225
     28 N          62.7855   85.1876   16.3191 N.ar    1  UNL1       -0.0425
@<TRIPOS>BOND
     1    19    20    1
     2    20    17    1
     3    17    18    2
     4    17     1    1
     5     1     2    2
     6     2    23    1
     7    23    24    1
     8    24    25   ar
     9    25    26   ar
    10    26    27   ar
    11    27    28   ar
    12     2     3    1
    13     3     4    1
    14     4     5    1
    15     4     6    2
    16     6    21    1
    17    21    22    3
    18     6     7    1
    19     7     9    1
    20     9    10   ar
    21    10    11   ar
    22    11    12   ar
    23    12    13    1
    24    12    14   ar
    25    14    15   ar
    26    15    16    1
    27     7     1    1
    28    15     9   ar
    29    28    24   ar
    30     3     8    1
@<TRIPOS>MOLECULE
*****
 28 30 0 0 0
SMALL
GASTEIGER

@<TRIPOS>ATOM
      1 C          63.7230   87.0447   13.7522 C.2     1  UNL1        0.0731
      2 C          63.1714   85.9378   12.9034 C.2     1  UNL1        0.0530
      3 N          62.5309   86.2524   11.5840 N.pl3   1  UNL1       -0.3173
      4 C          62.4420   87.6739   11.1134 C.2     1  UNL1        0.0317
      5 C          61.8015   87.9884    9.7940 C.3     1  UNL1        0.0475
      6 C          62.9937   88.7807   11.9622 C.2     1  UNL1        0.0635
      7 C          63.6342   88.4661   13.2816 C.3     1  UNL1        0.0855
      8 H          62.1689   85.5259   11.0269 H       1  UNL1        0.1517
      9 C          64.1858   89.5731   14.1304 C.ar    1  UNL1       -0.0026
     10 C          65.5118   90.1875   13.7927 C.ar    1  UNL1       -0.0005
     11 C          66.0635   91.2944   14.6414 C.ar    1  UNL1        0.0294
     12 C          65.2891   91.7869   15.8279 C.ar    1  UNL1        0.1410
     13 F          65.8408   92.8938   16.6767 F       1  UNL1       -0.2041
     14 C          63.9631   91.1725   16.1657 C.ar    1  UNL1        0.0407
     15 C          63.4114   90.0655   15.3169 C.ar    1  UNL1        0.0566
     16 CL         62.0854   89.4511   15.6546 Cl      1  UNL1       -0.0825
     17 C          64.3635   86.7301   15.0716 C.2     1  UNL1        0.3389
     18 O          65.7875   86.2612   15.1212 O.2     1  UNL1       -0.2452
     19 C          62.7397   85.7492   16.8467 C.3     1  UNL1        0.2559
     20 O          63.5801   86.8843   16.3413 O.3     1  UNL1       -0.4415
     21 C          62.9048   90.2023   11.4916 C.1     1  UNL1        0.0976
     22 N          62.8159   91.6237   11.0211 N.1     1  UNL1       -0.1911
     23 C          63.2603   84.5162   13.3740 C.3     1  UNL1        0.1716
     24 N          63.4143   83.4049   12.3784 N.ar    1  UNL1       -0.2049
     25 C          62.6481   82.1154   12.3709 C.ar    1  UNL1        0.2218
     26 N          63.1219   81.3015   11.2035 N.ar    1  UNL1       -0.1048
     27 N          64.1809   82.0879   10.4893 N.ar    1  UNL1       -0.0225
     28 N          64.3617   83.3879   11.2155 N.ar    1  UNL1       -0.0425
@<TRIPOS>BOND
     1    19    20    1
     2    20    17    1
     3    17    18    2
     4    17     1    1
     5     1     2    2
     6     2    23    1
     7    23    24    1
     8    24    25   ar
     9    25    26   ar
    10    26    27   ar
    11    27    28   ar
    12     2     3    1
    13     3     4    1
    14     4     5    1
    15     4     6    2
    16     6    21    1
    17    21    22    3
    18     6     7    1
    19     7     9    1
    20     9    10   ar
    21    10    11   ar
    22    11    12   ar
    23    12    13    1
    24    12    14   ar
    25    14    15   ar
    26    15    16    1
    27     7     1    1
    28    15     9   ar
    29    28    24   ar
    30     3     8    1
@<TRIPOS>MOLECULE
*****
 28 30 0 0 0
SMALL
GASTEIGER

@<TRIPOS>ATOM
      1 C          62.7985   86.0346   11.4846 C.2     1  UNL1        0.0731
      2 C          62.9152   87.4723   11.8957 C.2     1  UNL1        0.0530
      3 N          63.5232   87.8266   13.2204 N.pl3   1  UNL1       -0.3173
      4 C          64.0145   86.7432   14.1339 C.2     1  UNL1        0.0317
      5 C          64.6226   87.0975   15.4586 C.3     1  UNL1        0.0475
      6 C          63.8978   85.3054   13.7228 C.2     1  UNL1        0.0635
      7 C          63.2898   84.9511   12.3981 C.3     1  UNL1        0.0855
      8 H          63.5998   88.7703   13.4902 H       1  UNL1        0.1517
      9 C          63.1731   83.5132   11.9870 C.ar    1  UNL1       -0.0026
     10 C          63.8667   83.0287   10.7483 C.ar    1  UNL1       -0.0005
     11 C          63.7501   81.5909   10.3372 C.ar    1  UNL1        0.0294
     12 C          62.9398   80.6375   11.1647 C.ar    1  UNL1        0.1410
     13 F          62.8232   79.1997   10.7536 F       1  UNL1       -0.2041
     14 C          62.2463   81.1220   12.4033 C.ar    1  UNL1        0.0407
     15 C          62.3629   82.5599   12.8145 C.ar    1  UNL1        0.0566
     16 CL         61.6694   83.0444   14.0531 Cl      1  UNL1       -0.0825
     17 C          62.1905   85.6802   10.1599 C.2     1  UNL1        0.3389
     18 O          63.0658   85.2210    9.0317 O.2     1  UNL1       -0.2452
     19 C          60.1566   86.5911    8.8243 C.3     1  UNL1        0.2559
     20 O          60.7071   85.7852    9.9634 O.3     1  UNL1       -0.4415
     21 C          64.3892   84.2218   14.6363 C.1     1  UNL1        0.0976
     22 N          64.8806   83.1383   15.5498 N.1     1  UNL1       -0.1911
     23 C          62.4238   88.5559   10.9822 C.3     1  UNL1        0.1716
     24 N          61.1116   89.2294   11.2552 N.ar    1  UNL1       -0.2049
     25 C          60.7081   90.5963   10.7877 C.ar    1  UNL1        0.2218
     26 N          59.3196   90.8659   11.2872 N.ar    1  UNL1       -0.1048
     27 N          58.8651   89.6655   12.0635 N.ar    1  UNL1       -0.0225
     28 N          59.9726   88.6541   12.0437 N.ar    1  UNL1       -0.0425
@<TRIPOS>BOND
     1    19    20    1
     2    20    17    1
     3    17    18    2
     4    17     1    1
     5     1     2    2
     6     2    23    1
     7    23    24    1
     8    24    25   ar
     9    25    26   ar
    10    26    27   ar
    11    27    28   ar
    12     2     3    1
    13     3     4    1
    14     4     5    1
    15     4     6    2
    16     6    21    1
    17    21    22    3
    18     6     7    1
    19     7     9    1
    20     9    10   ar
    21    10    11   ar
    22    11    12   ar
    23    12    13    1
    24    12    14   ar
    25    14    15   ar
    26    15    16    1
    27     7     1    1
    28    15     9   ar
    29    28    24   ar
    30     3     8    1
@<TRIPOS>MOLECULE
*****
 28 30 0 0 0
SMALL
GASTEIGER

@<TRIPOS>ATOM
      1 C          63.3109   85.6141   12.4278 C.2     1  UNL1        0.0731
      2 C          64.0890   85.7482   13.7032 C.2     1  UNL1        0.0530
      3 N          64.3428   87.1061   14.2878 N.pl3   1  UNL1       -0.3173
      4 C          63.8184   88.3299   13.5970 C.2     1  UNL1        0.0317
      5 C          64.0722   89.6878   14.1816 C.3     1  UNL1        0.0475
      6 C          63.0403   88.1959   12.3217 C.2     1  UNL1        0.0635
      7 C          62.7866   86.8380   11.7371 C.3     1  UNL1        0.0855
      8 H          64.8535   87.1940   15.1248 H       1  UNL1        0.1517
      9 C          62.0084   86.7040   10.4617 C.ar    1  UNL1       -0.0026
     10 C          62.6421   86.0686    9.2597 C.ar    1  UNL1       -0.0005
     11 C          61.8640   85.9346    7.9844 C.ar    1  UNL1        0.0294
     12 C          60.4522   86.4360    7.9109 C.ar    1  UNL1        0.1410
     13 F          59.6741   86.3020    6.6355 F       1  UNL1       -0.2041
     14 C          59.8185   87.0715    9.1128 C.ar    1  UNL1        0.0407
     15 C          60.5966   87.2055   10.3883 C.ar    1  UNL1        0.0566
     16 CL         59.9629   87.8409   11.5902 Cl      1  UNL1       -0.0825
     17 C          63.0572   84.2563   11.8432 C.2     1  UNL1        0.3389
     18 O          61.7066   83.6191   11.9850 O.2     1  UNL1       -0.2452
     19 C          63.8767   82.2167   10.4582 C.3     1  UNL1        0.2559
     20 O          64.1539   83.5355   11.1169 O.3     1  UNL1       -0.4415
     21 C          62.5159   89.4198   11.6309 C.1     1  UNL1        0.0976
     22 N          61.9915   90.6436   10.9401 N.1     1  UNL1       -0.1911
     23 C          64.6134   84.5243   14.3940 C.3     1  UNL1        0.1716
     24 N          63.7501   83.3037   14.5154 N.ar    1  UNL1       -0.2049
     25 C          62.3622   83.2584   15.0826 C.ar    1  UNL1        0.2218
     26 N          61.8773   81.8408   15.0087 N.ar    1  UNL1       -0.1048
     27 N          62.9657   81.0100   14.3960 N.ar    1  UNL1       -0.0225
     28 N          64.1230   81.9141   14.0911 N.ar    1  UNL1       -0.0425
@<TRIPOS>BOND
     1    19    20    1
     2    20    17    1
     3    17    18    2
     4    17     1    1
     5     1     2    2
     6     2    23    1
     7    23    24    1
     8    24    25   ar
     9    25    26   ar
    10    26    27   ar
    11    27    28   ar
    12     2     3    1
    13     3     4    1
    14     4     5    1
    15     4     6    2
    16     6    21    1
    17    21    22    3
    18     6     7    1
    19     7     9    1
    20     9    10   ar
    21    10    11   ar
    22    11    12   ar
    23    12    13    1
    24    12    14   ar
    25    14    15   ar
    26    15    16    1
    27     7     1    1
    28    15     9   ar
    29    28    24   ar
    30     3     8    1
@<TRIPOS>MOLECULE
*****
 28 30 0 0 0
SMALL
GASTEIGER

@<TRIPOS>ATOM
      1 C          62.8131   86.1193   11.5630 C.2     1  UNL1        0.0731
      2 C          62.9179   87.5332   12.0524 C.2     1  UNL1        0.0530
      3 N          63.5162   87.8187   13.3980 N.pl3   1  UNL1       -0.3173
      4 C          64.0097   86.6903   14.2541 C.2     1  UNL1        0.0317
      5 C          64.6080   86.9758   15.5997 C.3     1  UNL1        0.0475
      6 C          63.9049   85.2763   13.7647 C.2     1  UNL1        0.0635
      7 C          63.3066   84.9908   12.4191 C.3     1  UNL1        0.0855
      8 H          63.5850   88.7468   13.7192 H       1  UNL1        0.1517
      9 C          63.2018   83.5767   11.9297 C.ar    1  UNL1       -0.0026
     10 C          63.9020   83.1658   10.6684 C.ar    1  UNL1       -0.0005
     11 C          63.7972   81.7518   10.1789 C.ar    1  UNL1        0.0294
     12 C          62.9922   80.7486   10.9508 C.ar    1  UNL1        0.1410
     13 F          62.8874   79.3346   10.4613 F       1  UNL1       -0.2041
     14 C          62.2920   81.1595   12.2121 C.ar    1  UNL1        0.0407
     15 C          62.3968   82.5736   12.7015 C.ar    1  UNL1        0.0566
     16 CL         61.6966   82.9845   13.9628 Cl      1  UNL1       -0.0825
     17 C          62.2148   85.8338   10.2174 C.2     1  UNL1        0.3389
     18 O          60.7246   85.8189   10.0471 O.2     1  UNL1       -0.2452
     19 C          62.5143   85.1201    7.7373 C.3     1  UNL1        0.2559
     20 O          63.1067   85.5632    9.0422 O.3     1  UNL1       -0.4415
     21 C          64.3983   84.1477   14.6208 C.1     1  UNL1        0.0976
     22 N          64.8918   83.0192   15.4769 N.1     1  UNL1       -0.1911
     23 C          62.4245   88.6618   11.1963 C.3     1  UNL1        0.1716
     24 N          63.1236   89.9885   11.2281 N.ar    1  UNL1       -0.2049
     25 C          63.1843   90.9803   10.1044 C.ar    1  UNL1        0.2218
     26 N          63.9830   92.1611   10.5710 N.ar    1  UNL1       -0.1048
     27 N          64.4159   91.8991   11.9831 N.ar    1  UNL1       -0.0225
     28 N          63.8848   90.5564   12.3892 N.ar    1  UNL1       -0.0425
@<TRIPOS>BOND
     1    19    20    1
     2    20    17    1
     3    17    18    2
     4    17     1    1
     5     1     2    2
     6     2    23    1
     7    23    24    1
     8    24    25   ar
     9    25    26   ar
    10    26    27   ar
    11    27    28   ar
    12     2     3    1
    13     3     4    1
    14     4     5    1
    15     4     6    2
    16     6    21    1
    17    21    22    3
    18     6     7    1
    19     7     9    1
    20     9    10   ar
    21    10    11   ar
    22    11    12   ar
    23    12    13    1
    24    12    14   ar
    25    14    15   ar
    26    15    16    1
    27     7     1    1
    28    15     9   ar
    29    28    24   ar
    30     3     8    1
