@<TRIPOS>MOLECULE
*****
 33 38 0 0 0
SMALL
GASTEIGER

@<TRIPOS>ATOM
      1 C          63.2110   81.3912   11.9811 C.ar    1  UNL1        0.1028
      2 C          63.6771   81.0154   13.3563 C.ar    1  UNL1        0.0131
      3 C          63.6905   82.0416   14.4503 C.ar    1  UNL1       -0.0015
      4 C          63.3014   83.5298   14.4961 C.ar    1  UNL1        0.0035
      5 C          63.1181   82.8881   13.1528 C.ar    1  UNL1        0.0358
      6 C          62.7583   82.7933   11.6996 C.ar    1  UNL1        0.1545
      7 O          62.2766   83.2600   10.3580 O.3     1  UNL1       -0.4528
      8 C          61.7463   84.2173    9.3320 C.ar    1  UNL1        0.1450
      9 C          61.1919   84.4991    7.5283 C.ar    1  UNL1        0.0372
     10 C          60.6666   85.6381    6.7056 C.ar    1  UNL1       -0.0014
     11 C          60.4690   86.9868    7.3316 C.ar    1  UNL1       -0.0243
     12 C          60.8583   86.9676    8.7801 C.ar    1  UNL1       -0.0052
     13 C          61.2483   85.5192    8.7780 C.ar    1  UNL1        0.0345
     14 C          60.6358   88.3421    9.3382 C.3     1  UNL1        0.0980
     15 C          60.1089   89.2107    8.2346 C.3     1  UNL1        0.0290
     16 C          60.0058   88.3731    6.9945 C.3     1  UNL1        0.0281
     17 N          60.6145   89.4332   10.3672 N.am    1  UNL1       -0.2763
     18 C          60.2695   90.8827   10.5402 C.3     1  UNL1        0.0956
     19 C          60.5464   91.2582   11.9657 C.3     1  UNL1        0.0466
     20 C          61.1576   90.1697   13.1636 C.3     1  UNL1        0.1337
     21 N          61.6393   89.7029   14.5053 N.3     1  UNL1       -0.2863
     22 C          62.1695   88.7457   15.5313 C.3     1  UNL1        0.1151
     23 C          62.6675   87.4438   16.0854 C.ar    1  UNL1        0.0739
     24 C          62.8893   87.9815   17.4680 C.ar    1  UNL1        0.1147
     25 N          63.4163   86.8654   18.3204 N.ar    1  UNL1       -0.2226
     26 C          63.5203   85.6379   17.4645 C.ar    1  UNL1        0.1786
     27 N          63.0575   85.9954   16.0832 N.ar    1  UNL1       -0.3070
     28 C          63.2801   84.6209   15.5251 C.3     1  UNL1        0.1341
     29 C          60.7977   90.0750   11.7105 C.2     1  UNL1        0.2401
     30 O          60.5287   90.7497   11.3821 O.2     1  UNL1       -0.2734
     31 H          60.8115   89.9864   15.0296 H       1  UNL1        0.1240
     32 N          63.1840   79.3388    9.7931 N.1     1  UNL1       -0.1907
     33 C          63.1975   80.3650   10.8871 C.1     1  UNL1        0.1035
@<TRIPOS>BOND
     1    32    33    3
     2    33     1    1
     3     1     2   ar
     4     2     3   ar
     5     3     4   ar
     6     4     5   ar
     7     5     6   ar
     8     6     7    1
     9     7     8    1
    10     8     9   ar
    11     9    10   ar
    12    10    11   ar
    13    11    12   ar
    14    12    13   ar
    15    12    14    1
    16    14    15    1
    17    15    16    1
    18    14    17    1
    19    17    18    1
    20    18    19    1
    21    20    19    1
    22    20    21    1
    23    21    22    1
    24    22    23    1
    25    23    24   ar
    26    24    25   ar
    27    25    26   ar
    28    26    27   ar
    29    27    28    1
    30    20    29    1
    31    29    30    2
    32     6     1   ar
    33    13     8   ar
    34    29    17   am
    35    28     4    1
    36    16    11    1
    37    27    23   ar
    38    21    31    1
@<TRIPOS>MOLECULE
*****
 33 38 0 0 0
SMALL
GASTEIGER

@<TRIPOS>ATOM
      1 C          59.9855   89.2344    7.5603 C.ar    1  UNL1        0.1028
      2 C          59.3330   89.1051    6.2159 C.ar    1  UNL1        0.0131
      3 C          59.7801   89.9746    5.0783 C.ar    1  UNL1       -0.0015
      4 C          60.8526   91.0716    4.9564 C.ar    1  UNL1        0.0035
      5 C          60.7544   90.4576    6.3214 C.ar    1  UNL1        0.0358
      6 C          61.0852   90.2333    7.7672 C.ar    1  UNL1        0.1545
      7 O          61.7948   90.4330    9.0735 O.3     1  UNL1       -0.4528
      8 C          62.7751   91.0262   10.0417 C.ar    1  UNL1        0.1450
      9 C          63.4770   91.0410   11.8158 C.ar    1  UNL1        0.0372
     10 C          64.5338   91.7891   12.5730 C.ar    1  UNL1       -0.0014
     11 C          65.3448   92.8455   11.8828 C.ar    1  UNL1       -0.0243
     12 C          64.9322   92.9857   10.4475 C.ar    1  UNL1       -0.0052
     13 C          63.8767   91.9226   10.5241 C.ar    1  UNL1        0.0345
     14 C          65.7807   94.0537    9.8234 C.3     1  UNL1        0.0980
     15 C          66.7177   94.5736   10.8730 C.3     1  UNL1        0.0290
     16 C          66.4484   93.8269   12.1458 C.3     1  UNL1        0.0281
     17 N          66.2931   94.9639    8.7469 N.am    1  UNL1       -0.2763
     18 C          67.3023   96.0460    8.5008 C.3     1  UNL1        0.0956
     19 C          67.1837   96.4733    7.0679 C.3     1  UNL1        0.0466
     20 C          66.0604   95.8022    5.9361 C.3     1  UNL1        0.1337
     21 N          65.3509   95.6025    4.6297 N.3     1  UNL1       -0.2863
     22 C          64.3706   95.0093    3.6616 C.3     1  UNL1        0.1151
     23 C          63.2689   94.1129    3.1791 C.ar    1  UNL1        0.0739
     24 C          63.2804   94.6547    1.7804 C.ar    1  UNL1        0.1147
     25 N          62.2321   93.9265    0.9926 N.ar    1  UNL1       -0.2226
     26 C          61.5726   92.9346    1.9044 C.ar    1  UNL1        0.1786
     27 N          62.2134   93.0498    3.2558 N.ar    1  UNL1       -0.3070
     28 C          61.3650   91.9818    3.8799 C.3     1  UNL1        0.1341
     29 C          66.3913   95.5779    7.3819 C.2     1  UNL1        0.2401
     30 O          66.9736   96.0381    7.6728 O.2     1  UNL1       -0.2734
     31 H          66.1858   95.4242    4.0715 H       1  UNL1        0.1240
     32 N          59.0912   87.4955    9.8354 N.1     1  UNL1       -0.1907
     33 C          59.5384   88.3649    8.6978 C.1     1  UNL1        0.1035
@<TRIPOS>BOND
     1    32    33    3
     2    33     1    1
     3     1     2   ar
     4     2     3   ar
     5     3     4   ar
     6     4     5   ar
     7     5     6   ar
     8     6     7    1
     9     7     8    1
    10     8     9   ar
    11     9    10   ar
    12    10    11   ar
    13    11    12   ar
    14    12    13   ar
    15    12    14    1
    16    14    15    1
    17    15    16    1
    18    14    17    1
    19    17    18    1
    20    18    19    1
    21    20    19    1
    22    20    21    1
    23    21    22    1
    24    22    23    1
    25    23    24   ar
    26    24    25   ar
    27    25    26   ar
    28    26    27   ar
    29    27    28    1
    30    20    29    1
    31    29    30    2
    32     6     1   ar
    33    13     8   ar
    34    29    17   am
    35    28     4    1
    36    16    11    1
    37    27    23   ar
    38    21    31    1
