@<TRIPOS>MOLECULE
*****
 21 23 0 0 0
SMALL
GASTEIGER

@<TRIPOS>ATOM
      1 N          63.9051   86.2607   15.6365 N.ar    1  UNL1       -0.3165
      2 C          63.0977   85.8857   16.8437 C.ar    1  UNL1        0.0779
      3 C          62.6398   87.1511   17.5063 C.ar    1  UNL1        0.0392
      4 C          63.1642   88.3081   16.7086 C.ar    1  UNL1        0.0985
      5 N          63.0306   89.7917   16.8852 N.ar    1  UNL1       -0.2423
      6 C          63.6790   90.7249   15.9061 C.ar    1  UNL1        0.0994
      7 C          64.4611   90.1745   14.7505 C.ar    1  UNL1        0.0266
      8 C          64.5947   88.6910   14.5739 C.ar    1  UNL1        0.0208
      9 C          63.9462   87.7578   15.5529 C.ar    1  UNL1        0.0782
     10 C          65.1096   91.1078   13.7714 C.ar    1  UNL1        0.0318
     11 C          66.4775   91.7097   13.9003 C.ar    1  UNL1        0.0079
     12 C          66.7173   92.5769   12.7002 C.ar    1  UNL1        0.0185
     13 C          65.4976   92.5110   11.8295 C.ar    1  UNL1        0.0870
     14 CL         65.3054   93.2273   10.5256 Cl      1  UNL1       -0.0752
     15 S          64.5040   91.6031   12.4916 S.2     1  UNL1       -0.0755
     16 C          64.5571   85.3061   14.6805 C.3     1  UNL1        0.1920
     17 C          62.4697   82.4082   12.9498 C.3     1  UNL1        0.1150
     18 N          63.0872   83.7507   13.2072 N.am    1  UNL1       -0.2744
     19 C          62.8525   84.8804   12.2487 C.3     1  UNL1        0.1150
     20 C          63.9395   83.9635   14.4231 C.2     1  UNL1        0.2488
     21 O          64.1741   82.8338   15.3815 O.2     1  UNL1       -0.2728
@<TRIPOS>BOND
     1    17    18    1
     2    18    19    1
     3    18    20   am
     4    20    21    2
     5    20    16    1
     6    16     1    1
     7     1     2   ar
     8     2     3   ar
     9     3     4   ar
    10     4     5   ar
    11     5     6   ar
    12     6     7   ar
    13     7    10    1
    14    10    11   ar
    15    11    12   ar
    16    12    13   ar
    17    13    14    1
    18    13    15   ar
    19     7     8   ar
    20     8     9   ar
    21     9     1   ar
    22     9     4   ar
    23    15    10   ar
@<TRIPOS>MOLECULE
*****
 21 23 0 0 0
SMALL
GASTEIGER

@<TRIPOS>ATOM
      1 N          66.0468   93.2238   13.0609 N.ar    1  UNL1       -0.3165
      2 C          66.8564   93.2344   14.3237 C.ar    1  UNL1        0.0779
      3 C          66.5312   91.9886   15.0932 C.ar    1  UNL1        0.0392
      4 C          65.5206   91.2080   14.3060 C.ar    1  UNL1        0.0985
      5 N          64.8344   89.9008   14.5707 N.ar    1  UNL1       -0.2423
      6 C          63.8488   89.3569   13.5794 C.ar    1  UNL1        0.0994
      7 C          63.5494   90.1204   12.3233 C.ar    1  UNL1        0.0266
      8 C          64.2357   91.4276   12.0587 C.ar    1  UNL1        0.0208
      9 C          65.2213   91.9714   13.0500 C.ar    1  UNL1        0.0782
     10 C          62.5638   89.5765   11.3320 C.ar    1  UNL1        0.0318
     11 C          61.7126   90.3867   10.3997 C.ar    1  UNL1        0.0079
     12 C          60.8790   89.4379    9.5904 C.ar    1  UNL1        0.0185
     13 C          61.2150   88.0413   10.0225 C.ar    1  UNL1        0.0870
     14 CL         60.6152   86.7804    9.4744 Cl      1  UNL1       -0.0752
     15 S          62.2563   88.1270   11.0988 S.2     1  UNL1       -0.0755
     16 C          66.0604   94.2801   11.9960 C.3     1  UNL1        0.1920
     17 C          67.4291   94.7930    8.3064 C.3     1  UNL1        0.1150
     18 N          66.6931   95.0329    9.5912 N.am    1  UNL1       -0.2744
     19 C          65.8540   96.2652    9.7562 C.3     1  UNL1        0.1150
     20 C          66.7963   94.0403   10.7111 C.2     1  UNL1        0.2488
     21 O          67.6355   92.8080   10.5461 O.2     1  UNL1       -0.2728
@<TRIPOS>BOND
     1    17    18    1
     2    18    19    1
     3    18    20   am
     4    20    21    2
     5    20    16    1
     6    16     1    1
     7     1     2   ar
     8     2     3   ar
     9     3     4   ar
    10     4     5   ar
    11     5     6   ar
    12     6     7   ar
    13     7    10    1
    14    10    11   ar
    15    11    12   ar
    16    12    13   ar
    17    13    14    1
    18    13    15   ar
    19     7     8   ar
    20     8     9   ar
    21     9     1   ar
    22     9     4   ar
    23    15    10   ar
@<TRIPOS>MOLECULE
*****
 21 23 0 0 0
SMALL
GASTEIGER

@<TRIPOS>ATOM
      1 N          63.9173   85.2143   13.6615 N.ar    1  UNL1       -0.3165
      2 C          64.6864   85.8548   14.7787 C.ar    1  UNL1        0.0779
      3 C          64.5523   87.3424   14.6405 C.ar    1  UNL1        0.0392
      4 C          63.7003   87.6213   13.4378 C.ar    1  UNL1        0.0985
      5 N          63.2312   88.9029   12.8155 N.ar    1  UNL1       -0.2423
      6 C          62.3696   88.8693   11.5881 C.ar    1  UNL1        0.0994
      7 C          61.9771   87.5541   10.9831 C.ar    1  UNL1        0.0266
      8 C          62.4463   86.2724   11.6054 C.ar    1  UNL1        0.0208
      9 C          63.3078   86.3060   12.8328 C.ar    1  UNL1        0.0782
     10 C          61.1155   87.5205    9.7556 C.ar    1  UNL1        0.0318
     11 C          60.6602   86.2883    9.0315 C.ar    1  UNL1        0.0079
     12 C          59.8212   86.7194    7.8652 C.ar    1  UNL1        0.0185
     13 C          59.7580   88.2181    7.8685 C.ar    1  UNL1        0.0870
     14 CL         59.0238   89.0718    6.8775 Cl      1  UNL1       -0.0752
     15 S          60.5579   88.7132    9.0369 S.2     1  UNL1       -0.0755
     16 C          63.7814   83.7408   13.4160 C.3     1  UNL1        0.1920
     17 C          61.0831   80.9155   14.1138 C.3     1  UNL1        0.1150
     18 N          62.1932   81.6852   13.4616 N.am    1  UNL1       -0.2744
     19 C          62.8250   81.1691   12.2028 C.3     1  UNL1        0.1150
     20 C          62.6713   82.9710   14.0682 C.2     1  UNL1        0.2488
     21 O          62.0395   83.4871   15.3269 O.2     1  UNL1       -0.2728
@<TRIPOS>BOND
     1    17    18    1
     2    18    19    1
     3    18    20   am
     4    20    21    2
     5    20    16    1
     6    16     1    1
     7     1     2   ar
     8     2     3   ar
     9     3     4   ar
    10     4     5   ar
    11     5     6   ar
    12     6     7   ar
    13     7    10    1
    14    10    11   ar
    15    11    12   ar
    16    12    13   ar
    17    13    14    1
    18    13    15   ar
    19     7     8   ar
    20     8     9   ar
    21     9     1   ar
    22     9     4   ar
    23    15    10   ar
@<TRIPOS>MOLECULE
*****
 21 23 0 0 0
SMALL
GASTEIGER

@<TRIPOS>ATOM
      1 N          63.1996   90.3786   13.1589 N.ar    1  UNL1       -0.3165
      2 C          63.1096   89.9463   14.5924 C.ar    1  UNL1        0.0779
      3 C          64.2075   90.6297   15.3524 C.ar    1  UNL1        0.0392
      4 C          64.9760   91.4844   14.3885 C.ar    1  UNL1        0.0985
      5 N          66.1624   92.3840   14.5702 N.ar    1  UNL1       -0.2423
      6 C          66.7260   93.1283   13.3962 C.ar    1  UNL1        0.0994
      7 C          66.1030   92.9730   12.0405 C.ar    1  UNL1        0.0266
      8 C          64.9166   92.0735   11.8588 C.ar    1  UNL1        0.0208
      9 C          64.3530   91.3292   13.0329 C.ar    1  UNL1        0.0782
     10 C          66.6666   93.7174   10.8664 C.ar    1  UNL1        0.0318
     11 C          67.4610   93.1204    9.7428 C.ar    1  UNL1        0.0079
     12 C          67.8201   94.2234    8.7918 C.ar    1  UNL1        0.0185
     13 C          67.2477   95.5022    9.3278 C.ar    1  UNL1        0.0870
     14 CL         67.3672   96.8560    8.6930 Cl      1  UNL1       -0.0752
     15 S          66.5348   95.1894   10.6099 S.2     1  UNL1       -0.0755
     16 C          62.2949   89.9376   12.0466 C.3     1  UNL1        0.1920
     17 C          61.8679   86.8088    9.6428 C.3     1  UNL1        0.1150
     18 N          61.7619   88.2021   10.1880 N.am    1  UNL1       -0.2744
     19 C          61.0170   89.2534    9.4200 C.3     1  UNL1        0.1150
     20 C          62.4009   88.5442   11.5013 C.2     1  UNL1        0.2488
     21 O          63.1458   87.4929   12.2694 O.2     1  UNL1       -0.2728
@<TRIPOS>BOND
     1    17    18    1
     2    18    19    1
     3    18    20   am
     4    20    21    2
     5    20    16    1
     6    16     1    1
     7     1     2   ar
     8     2     3   ar
     9     3     4   ar
    10     4     5   ar
    11     5     6   ar
    12     6     7   ar
    13     7    10    1
    14    10    11   ar
    15    11    12   ar
    16    12    13   ar
    17    13    14    1
    18    13    15   ar
    19     7     8   ar
    20     8     9   ar
    21     9     1   ar
    22     9     4   ar
    23    15    10   ar
@<TRIPOS>MOLECULE
*****
 21 23 0 0 0
SMALL
GASTEIGER

@<TRIPOS>ATOM
      1 N          62.8726   83.0249   12.5386 N.ar    1  UNL1       -0.3165
      2 C          63.4985   81.8611   11.8287 C.ar    1  UNL1        0.0779
      3 C          63.7558   82.2686   10.4083 C.ar    1  UNL1        0.0392
      4 C          63.2889   83.6841   10.2402 C.ar    1  UNL1        0.0985
      5 N          63.2903   84.6078    9.0584 N.ar    1  UNL1       -0.2423
      6 C          62.7458   85.9990    9.1932 C.ar    1  UNL1        0.0994
      7 C          62.1999   86.4664   10.5099 C.ar    1  UNL1        0.0266
      8 C          62.1986   85.5427   11.6917 C.ar    1  UNL1        0.0208
      9 C          62.7431   84.1515   11.5568 C.ar    1  UNL1        0.0782
     10 C          61.6554   87.8576   10.6447 C.ar    1  UNL1        0.0318
     11 C          62.3384   89.1183   10.2038 C.ar    1  UNL1        0.0079
     12 C          61.4375   90.2722   10.5306 C.ar    1  UNL1        0.0185
     13 C          60.1977   89.7246   11.1735 C.ar    1  UNL1        0.0870
     14 CL         59.0285   90.5283   11.6604 Cl      1  UNL1       -0.0752
     15 S          60.3324   88.2324   11.2440 S.2     1  UNL1       -0.0755
     16 C          62.4503   83.0564   13.9776 C.3     1  UNL1        0.1920
     17 C          64.1114   86.2173   15.7096 C.3     1  UNL1        0.1150
     18 N          63.9555   84.9580   14.9097 N.am    1  UNL1       -0.2744
     19 C          65.1485   84.3411   14.2419 C.3     1  UNL1        0.1150
     20 C          62.6064   84.3157   14.7776 C.2     1  UNL1        0.2488
     21 O          61.4133   84.9327   15.4454 O.2     1  UNL1       -0.2728
@<TRIPOS>BOND
     1    17    18    1
     2    18    19    1
     3    18    20   am
     4    20    21    2
     5    20    16    1
     6    16     1    1
     7     1     2   ar
     8     2     3   ar
     9     3     4   ar
    10     4     5   ar
    11     5     6   ar
    12     6     7   ar
    13     7    10    1
    14    10    11   ar
    15    11    12   ar
    16    12    13   ar
    17    13    14    1
    18    13    15   ar
    19     7     8   ar
    20     8     9   ar
    21     9     1   ar
    22     9     4   ar
    23    15    10   ar
@<TRIPOS>MOLECULE
*****
 21 23 0 0 0
SMALL
GASTEIGER

@<TRIPOS>ATOM
      1 N          63.8930   84.6307   14.2846 N.ar    1  UNL1       -0.3165
      2 C          64.4240   85.4970   15.3880 C.ar    1  UNL1        0.0779
      3 C          64.2866   86.9282   14.9604 C.ar    1  UNL1        0.0392
      4 C          63.6707   86.9464   13.5928 C.ar    1  UNL1        0.0985
      5 N          63.3000   88.0725   12.6739 N.ar    1  UNL1       -0.2423
      6 C          62.6860   87.7786   11.3373 C.ar    1  UNL1        0.0994
      7 C          62.4427   86.3586   10.9196 C.ar    1  UNL1        0.0266
      8 C          62.8134   85.2325   11.8385 C.ar    1  UNL1        0.0208
      9 C          63.4274   85.5264   13.1751 C.ar    1  UNL1        0.0782
     10 C          61.8286   86.0647    9.5829 C.ar    1  UNL1        0.0318
     11 C          60.4596   86.4792    9.1313 C.ar    1  UNL1        0.0079
     12 C          60.2606   85.9754    7.7325 C.ar    1  UNL1        0.0185
     13 C          61.5068   85.2496    7.3196 C.ar    1  UNL1        0.0870
     14 CL         61.7424   84.5852    5.9956 Cl      1  UNL1       -0.0752
     15 S          62.4758   85.3048    8.4633 S.2     1  UNL1       -0.0755
     16 C          63.8373   83.1317   14.2898 C.3     1  UNL1        0.1920
     17 C          62.8011   80.6409   11.3791 C.3     1  UNL1        0.1150
     18 N          62.7739   81.3968   12.6743 N.am    1  UNL1       -0.2744
     19 C          61.6561   81.1740   13.6495 C.3     1  UNL1        0.1150
     20 C          63.8645   82.3757   12.9944 C.2     1  UNL1        0.2488
     21 O          64.9822   82.5986   12.0193 O.2     1  UNL1       -0.2728
@<TRIPOS>BOND
     1    17    18    1
     2    18    19    1
     3    18    20   am
     4    20    21    2
     5    20    16    1
     6    16     1    1
     7     1     2   ar
     8     2     3   ar
     9     3     4   ar
    10     4     5   ar
    11     5     6   ar
    12     6     7   ar
    13     7    10    1
    14    10    11   ar
    15    11    12   ar
    16    12    13   ar
    17    13    14    1
    18    13    15   ar
    19     7     8   ar
    20     8     9   ar
    21     9     1   ar
    22     9     4   ar
    23    15    10   ar
@<TRIPOS>MOLECULE
*****
 21 23 0 0 0
SMALL
GASTEIGER

@<TRIPOS>ATOM
      1 N          64.2020   88.0405   14.1633 N.ar    1  UNL1       -0.3165
      2 C          64.4571   89.3212   14.9014 C.ar    1  UNL1        0.0779
      3 C          63.8338   90.4390   14.1192 C.ar    1  UNL1        0.0392
      4 C          63.1935   89.8493   12.8976 C.ar    1  UNL1        0.0985
      5 N          62.4326   90.4706   11.7640 N.ar    1  UNL1       -0.2423
      6 C          61.8994   89.6094   10.6577 C.ar    1  UNL1        0.0994
      7 C          62.1270   88.1271   10.6849 C.ar    1  UNL1        0.0266
      8 C          62.8878   87.5058   11.8185 C.ar    1  UNL1        0.0208
      9 C          63.4211   88.3669   12.9249 C.ar    1  UNL1        0.0782
     10 C          61.5936   87.2659    9.5785 C.ar    1  UNL1        0.0318
     11 C          60.1686   87.2100    9.1136 C.ar    1  UNL1        0.0079
     12 C          60.0859   86.2191    7.9906 C.ar    1  UNL1        0.0185
     13 C          61.4599   85.6627    7.7613 C.ar    1  UNL1        0.0870
     14 CL         61.8361   84.6389    6.7315 Cl      1  UNL1       -0.0752
     15 S          62.3917   86.3096    8.7427 S.2     1  UNL1       -0.0755
     16 C          64.6493   86.6735   14.5888 C.3     1  UNL1        0.1920
     17 C          62.4439   83.3888   14.9009 C.3     1  UNL1        0.1150
     18 N          63.4460   84.3796   14.3871 N.am    1  UNL1       -0.2744
     19 C          64.2469   84.0676   13.1578 C.3     1  UNL1        0.1150
     20 C          63.6472   85.6825   15.1027 C.2     1  UNL1        0.2488
     21 O          62.8462   85.9946   16.3319 O.2     1  UNL1       -0.2728
@<TRIPOS>BOND
     1    17    18    1
     2    18    19    1
     3    18    20   am
     4    20    21    2
     5    20    16    1
     6    16     1    1
     7     1     2   ar
     8     2     3   ar
     9     3     4   ar
    10     4     5   ar
    11     5     6   ar
    12     6     7   ar
    13     7    10    1
    14    10    11   ar
    15    11    12   ar
    16    12    13   ar
    17    13    14    1
    18    13    15   ar
    19     7     8   ar
    20     8     9   ar
    21     9     1   ar
    22     9     4   ar
    23    15    10   ar
@<TRIPOS>MOLECULE
*****
 21 23 0 0 0
SMALL
GASTEIGER

@<TRIPOS>ATOM
      1 N          61.9100   86.4909   11.0417 N.ar    1  UNL1       -0.3165
      2 C          60.9364   86.3648    9.9076 C.ar    1  UNL1        0.0779
      3 C          60.6928   87.7363    9.3513 C.ar    1  UNL1        0.0392
      4 C          61.5157   88.7101   10.1415 C.ar    1  UNL1        0.0985
      5 N          61.6772   90.1982   10.0447 N.ar    1  UNL1       -0.2423
      6 C          62.5911   90.9166   10.9927 C.ar    1  UNL1        0.0994
      7 C          63.3434   90.1469   12.0375 C.ar    1  UNL1        0.0266
      8 C          63.1819   88.6588   12.1342 C.ar    1  UNL1        0.0208
      9 C          62.2681   87.9404   11.1863 C.ar    1  UNL1        0.0782
     10 C          64.2573   90.8654   12.9855 C.ar    1  UNL1        0.0318
     11 C          64.5070   90.4981   14.4182 C.ar    1  UNL1        0.0079
     12 C          65.4859   91.4830   14.9854 C.ar    1  UNL1        0.0185
     13 C          65.8413   92.4590   13.9032 C.ar    1  UNL1        0.0870
     14 CL         66.7895   93.6139   14.0340 Cl      1  UNL1       -0.0752
     15 S          65.0820   92.0773   12.6672 S.2     1  UNL1       -0.0755
     16 C          62.4337   85.3653   11.8835 C.3     1  UNL1        0.1920
     17 C          63.4406   81.5648   11.3421 C.3     1  UNL1        0.1150
     18 N          62.9406   82.8195   11.9946 N.am    1  UNL1       -0.2744
     19 C          62.4474   82.7831   13.4108 C.3     1  UNL1        0.1150
     20 C          62.9338   84.1105   11.2310 C.2     1  UNL1        0.2488
     21 O          63.4270   84.1468    9.8149 O.2     1  UNL1       -0.2728
@<TRIPOS>BOND
     1    17    18    1
     2    18    19    1
     3    18    20   am
     4    20    21    2
     5    20    16    1
     6    16     1    1
     7     1     2   ar
     8     2     3   ar
     9     3     4   ar
    10     4     5   ar
    11     5     6   ar
    12     6     7   ar
    13     7    10    1
    14    10    11   ar
    15    11    12   ar
    16    12    13   ar
    17    13    14    1
    18    13    15   ar
    19     7     8   ar
    20     8     9   ar
    21     9     1   ar
    22     9     4   ar
    23    15    10   ar
@<TRIPOS>MOLECULE
*****
 21 23 0 0 0
SMALL
GASTEIGER

@<TRIPOS>ATOM
      1 N          63.1073   89.0730   11.8888 N.ar    1  UNL1       -0.3165
      2 C          63.5449   90.1898   12.7895 C.ar    1  UNL1        0.0779
      3 C          64.0345   89.5860   14.0723 C.ar    1  UNL1        0.0392
      4 C          63.8995   88.0959   13.9645 C.ar    1  UNL1        0.0985
      5 N          64.2244   86.9869   14.9207 N.ar    1  UNL1       -0.2423
      6 C          63.9762   85.5608   14.5275 C.ar    1  UNL1        0.0994
      7 C          63.4032   85.2438   13.1780 C.ar    1  UNL1        0.0266
      8 C          63.0783   86.3528   12.2217 C.ar    1  UNL1        0.0208
      9 C          63.3265   87.7789   12.6150 C.ar    1  UNL1        0.0782
     10 C          63.1550   83.8176   12.7847 C.ar    1  UNL1        0.0318
     11 C          63.3156   83.2417   11.4090 C.ar    1  UNL1        0.0079
     12 C          62.9626   81.7852   11.4722 C.ar    1  UNL1        0.0185
     13 C          62.5837   81.4610   12.8869 C.ar    1  UNL1        0.0870
     14 CL         62.1603   80.1167   13.4003 Cl      1  UNL1       -0.0752
     15 S          62.7027   82.7171   13.6981 S.2     1  UNL1       -0.0755
     16 C          62.5487   89.2238   10.5049 C.3     1  UNL1        0.1920
     17 C          59.5456   87.0398    9.1042 C.3     1  UNL1        0.1150
     18 N          60.9391   87.5061    9.4054 N.am    1  UNL1       -0.2744
     19 C          62.1166   86.7210    8.9082 C.3     1  UNL1        0.1150
     20 C          61.1551   88.7574   10.2037 C.2     1  UNL1        0.2488
     21 O          59.9776   89.5425   10.7009 O.2     1  UNL1       -0.2728
@<TRIPOS>BOND
     1    17    18    1
     2    18    19    1
     3    18    20   am
     4    20    21    2
     5    20    16    1
     6    16     1    1
     7     1     2   ar
     8     2     3   ar
     9     3     4   ar
    10     4     5   ar
    11     5     6   ar
    12     6     7   ar
    13     7    10    1
    14    10    11   ar
    15    11    12   ar
    16    12    13   ar
    17    13    14    1
    18    13    15   ar
    19     7     8   ar
    20     8     9   ar
    21     9     1   ar
    22     9     4   ar
    23    15    10   ar
