@<TRIPOS>MOLECULE
*****
 32 34 0 0 0
SMALL
GASTEIGER

@<TRIPOS>ATOM
      1 C          63.3888   91.2393   10.8636 C.3     1  UNL1        0.0317
      2 C          64.0084   90.8489   12.1726 C.ar    1  UNL1       -0.0133
      3 C          63.5271   89.6255   12.8950 C.ar    1  UNL1        0.0112
      4 C          64.1468   89.2350   14.2040 C.ar    1  UNL1        0.0537
      5 C          65.2478   90.0679   14.7908 C.ar    1  UNL1        0.0112
      6 C          65.7291   91.2913   14.0684 C.ar    1  UNL1       -0.0133
      7 C          66.8300   92.1241   14.6551 C.3     1  UNL1        0.0317
      8 C          65.1094   91.6817   12.7594 C.ar    1  UNL1        0.0338
      9 N          63.6655   88.0117   14.9263 N.am    1  UNL1       -0.2511
     10 C          63.3989   88.1842   16.3924 C.3     1  UNL1        0.1458
     11 C          62.9154   87.1652   17.3813 C.3     1  UNL1        0.2289
     12 O          62.5791   85.7221   17.1484 O.3     1  UNL1       -0.4581
     13 C          62.6431   84.9415   15.8691 C.ar    1  UNL1        0.2335
     14 N          62.2184   83.5176   16.0741 N.ar    1  UNL1       -0.1891
     15 C          62.2100   82.5634   14.9168 C.ar    1  UNL1        0.2027
     16 N          62.6262   83.0332   13.5544 N.ar    1  UNL1       -0.2091
     17 C          63.0509   84.4571   13.3494 C.ar    1  UNL1        0.1361
     18 N          63.4671   84.9269   11.9870 N.pl3   1  UNL1       -0.3423
     19 C          63.0593   85.4112   14.5067 C.ar    1  UNL1        0.1380
     20 C          63.5143   86.7776   14.0872 C.2     1  UNL1        0.2601
     21 O          63.8645   86.9301   12.6366 O.2     1  UNL1       -0.2693
     22 H          63.4616   84.3006   11.2274 H       1  UNL1        0.1437
     23 H          63.7458   85.8615   11.8524 H       1  UNL1        0.1437
     24 C          65.5907   92.9050   12.0371 C.1     1  UNL1       -0.0651
     25 C          66.0721   94.1284   11.3147 C.1     1  UNL1       -0.0880
     26 C          66.5534   95.3517   10.5924 C.3     1  UNL1        0.0595
     27 C          65.8644   96.2198   11.6034 C.3     1  UNL1        0.0134
     28 C          67.2423   94.4838    9.5815 C.3     1  UNL1        0.0134
     29 C          67.0347   96.5751    9.8701 C.3     1  UNL1        0.0537
     30 C          66.7175   96.7608    8.4158 C.2     1  UNL1        0.0513
     31 O          67.8280   96.8514    7.4115 O.co2   1  UNL1       -0.5491
     32 O          65.2897   96.8559    7.9658 O.co2   1  UNL1       -0.5491
@<TRIPOS>UNITY_ATOM_ATTR
31 1
charge -1
@<TRIPOS>BOND
     1     1     2    1
     2     2     3   ar
     3     3     4   ar
     4     4     9    1
     5     9    10    1
     6    10    11    1
     7    11    12    1
     8    12    13    1
     9    13    14   ar
    10    14    15   ar
    11    15    16   ar
    12    16    17   ar
    13    17    18    1
    14    17    19   ar
    15    19    20    1
    16    20    21    2
    17     4     5   ar
    18     5     6   ar
    19     6     7    1
    20     6     8   ar
    21     8    24    1
    22    24    25    3
    23    25    26    1
    24    26    27    1
    25    26    28    1
    26    26    29    1
    27    29    30    1
    28    30    31   ar
    29    30    32   ar
    30     8     2   ar
    31    20     9   am
    32    19    13   ar
    33    18    22    1
    34    18    23    1
@<TRIPOS>MOLECULE
*****
 32 34 0 0 0
SMALL
GASTEIGER

@<TRIPOS>ATOM
      1 C          63.1719   90.2890   10.6984 C.3     1  UNL1        0.0317
      2 C          63.7016   89.8443   12.0294 C.ar    1  UNL1       -0.0133
      3 C          63.3064   88.5084   12.5856 C.ar    1  UNL1        0.0112
      4 C          63.8360   88.0637   13.9166 C.ar    1  UNL1        0.0537
      5 C          64.7609   88.9548   14.6916 C.ar    1  UNL1        0.0112
      6 C          65.1561   90.2907   14.1354 C.ar    1  UNL1       -0.0133
      7 C          66.0810   91.1818   14.9103 C.3     1  UNL1        0.0317
      8 C          64.6265   90.7354   12.8044 C.ar    1  UNL1        0.0338
      9 N          63.4408   86.7278   14.4727 N.am    1  UNL1       -0.2511
     10 C          63.3221   86.6539   15.9662 C.3     1  UNL1        0.1458
     11 C          62.9498   85.4764   16.8177 C.3     1  UNL1        0.2289
     12 O          62.6043   84.0821   16.3859 O.3     1  UNL1       -0.4581
     13 C          62.5458   83.5207   14.9961 C.ar    1  UNL1        0.2335
     14 N          62.1565   82.0722   15.0061 N.ar    1  UNL1       -0.1891
     15 C          62.0398   81.3181   13.7147 C.ar    1  UNL1        0.2027
     16 N          62.3122   82.0126   12.4134 N.ar    1  UNL1       -0.2091
     17 C          62.7015   83.4611   12.4034 C.ar    1  UNL1        0.1361
     18 N          62.9740   84.1556   11.1021 N.pl3   1  UNL1       -0.3423
     19 C          62.8183   84.2152   13.6948 C.ar    1  UNL1        0.1380
     20 C          63.2166   85.6425   13.4619 C.2     1  UNL1        0.2601
     21 O          63.4173   86.0366   12.0286 O.2     1  UNL1       -0.2693
     22 H          62.8974   83.6607   10.2545 H       1  UNL1        0.1437
     23 H          63.2295   85.1064   11.0956 H       1  UNL1        0.1437
     24 C          65.0217   92.0712   12.2483 C.1     1  UNL1       -0.0651
     25 C          65.4169   93.4072   11.6921 C.1     1  UNL1       -0.0880
     26 C          65.8121   94.7430   11.1360 C.3     1  UNL1        0.0595
     27 C          66.3621   95.1376   12.4747 C.3     1  UNL1        0.0134
     28 C          65.2621   94.3484    9.7975 C.3     1  UNL1        0.0134
     29 C          66.2073   96.0789   10.5799 C.3     1  UNL1        0.0537
     30 C          66.6811   96.1901    9.1610 C.2     1  UNL1        0.0513
     31 O          65.8166   96.8556    8.1316 O.co2   1  UNL1       -0.5491
     32 O          68.0195   95.6359    8.7717 O.co2   1  UNL1       -0.5491
@<TRIPOS>UNITY_ATOM_ATTR
31 1
charge -1
@<TRIPOS>BOND
     1     1     2    1
     2     2     3   ar
     3     3     4   ar
     4     4     9    1
     5     9    10    1
     6    10    11    1
     7    11    12    1
     8    12    13    1
     9    13    14   ar
    10    14    15   ar
    11    15    16   ar
    12    16    17   ar
    13    17    18    1
    14    17    19   ar
    15    19    20    1
    16    20    21    2
    17     4     5   ar
    18     5     6   ar
    19     6     7    1
    20     6     8   ar
    21     8    24    1
    22    24    25    3
    23    25    26    1
    24    26    27    1
    25    26    28    1
    26    26    29    1
    27    29    30    1
    28    30    31   ar
    29    30    32   ar
    30     8     2   ar
    31    20     9   am
    32    19    13   ar
    33    18    22    1
    34    18    23    1
@<TRIPOS>MOLECULE
*****
 32 34 0 0 0
SMALL
GASTEIGER

@<TRIPOS>ATOM
      1 C          64.8857   86.1797   15.6987 C.3     1  UNL1        0.0317
      2 C          64.4934   87.1834   14.6553 C.ar    1  UNL1       -0.0133
      3 C          64.9901   88.5957   14.7488 C.ar    1  UNL1        0.0112
      4 C          64.5978   89.5994   13.7054 C.ar    1  UNL1        0.0537
      5 C          63.7086   89.1909   12.5685 C.ar    1  UNL1        0.0112
      6 C          63.2119   87.7786   12.4750 C.ar    1  UNL1       -0.0133
      7 C          62.3228   87.3701   11.3381 C.3     1  UNL1        0.0317
      8 C          63.6042   86.7749   13.5184 C.ar    1  UNL1        0.0338
      9 N          65.0945   91.0116   13.7990 N.am    1  UNL1       -0.2511
     10 C          65.5317   91.4588   15.1624 C.3     1  UNL1        0.1458
     11 C          66.0707   92.7948   15.5804 C.3     1  UNL1        0.2289
     12 O          66.3058   94.0135   14.7380 O.3     1  UNL1       -0.4581
     13 C          66.0599   94.1973   13.2697 C.ar    1  UNL1        0.2335
     14 N          66.4325   95.5790   12.8204 N.ar    1  UNL1       -0.1891
     15 C          66.2633   95.9712   11.3825 C.ar    1  UNL1        0.2027
     16 N          65.7216   94.9816   10.3940 N.ar    1  UNL1       -0.2091
     17 C          65.3490   93.5999   10.8433 C.ar    1  UNL1        0.1361
     18 N          64.8073   92.6103    9.8547 N.pl3   1  UNL1       -0.3423
     19 C          65.5181   93.2077   12.2812 C.ar    1  UNL1        0.1380
     20 C          65.0885   91.7900   12.5168 C.2     1  UNL1        0.2601
     21 O          64.5865   91.0531   11.3105 O.2     1  UNL1       -0.2693
     22 H          64.6963   92.8677    8.9110 H       1  UNL1        0.1437
     23 H          64.5627   91.7034   10.1496 H       1  UNL1        0.1437
     24 C          63.1074   85.3627   13.4249 C.1     1  UNL1       -0.0651
     25 C          62.6106   83.9503   13.3313 C.1     1  UNL1       -0.0880
     26 C          62.1139   82.5381   13.2378 C.3     1  UNL1        0.0595
     27 C          61.8056   82.5493   14.7058 C.3     1  UNL1        0.0134
     28 C          62.4221   82.5269   11.7699 C.3     1  UNL1        0.0134
     29 C          61.6171   81.1259   13.1443 C.3     1  UNL1        0.0537
     30 C          62.5945   79.9905   13.0684 C.2     1  UNL1        0.0513
     31 O          63.4582   79.6641   14.2505 O.co2   1  UNL1       -0.5491
     32 O          62.7081   79.1816   11.8103 O.co2   1  UNL1       -0.5491
@<TRIPOS>UNITY_ATOM_ATTR
31 1
charge -1
@<TRIPOS>BOND
     1     1     2    1
     2     2     3   ar
     3     3     4   ar
     4     4     9    1
     5     9    10    1
     6    10    11    1
     7    11    12    1
     8    12    13    1
     9    13    14   ar
    10    14    15   ar
    11    15    16   ar
    12    16    17   ar
    13    17    18    1
    14    17    19   ar
    15    19    20    1
    16    20    21    2
    17     4     5   ar
    18     5     6   ar
    19     6     7    1
    20     6     8   ar
    21     8    24    1
    22    24    25    3
    23    25    26    1
    24    26    27    1
    25    26    28    1
    26    26    29    1
    27    29    30    1
    28    30    31   ar
    29    30    32   ar
    30     8     2   ar
    31    20     9   am
    32    19    13   ar
    33    18    22    1
    34    18    23    1
@<TRIPOS>MOLECULE
*****
 32 34 0 0 0
SMALL
GASTEIGER

@<TRIPOS>ATOM
      1 C          63.7212   91.0972    2.9390 C.3     1  UNL1        0.0317
      2 C          63.1472   92.2768    2.2117 C.ar    1  UNL1       -0.0133
      3 C          63.9712   93.0005    1.1883 C.ar    1  UNL1        0.0112
      4 C          63.3972   94.1802    0.4610 C.ar    1  UNL1        0.0537
      5 C          61.9992   94.6362    0.7570 C.ar    1  UNL1        0.0112
      6 C          61.1752   93.9125    1.7805 C.ar    1  UNL1       -0.0133
      7 C          59.7772   94.3685    2.0765 C.3     1  UNL1        0.0317
      8 C          61.7492   92.7328    2.5078 C.ar    1  UNL1        0.0338
      9 N          64.2212   94.9038   -0.5624 N.am    1  UNL1       -0.2511
     10 C          65.2243   95.8782   -0.0197 C.3     1  UNL1        0.1458
     11 C          66.1871   96.7469   -0.7737 C.3     1  UNL1        0.2289
     12 O          66.3846   96.8556   -2.2567 O.3     1  UNL1       -0.4581
     13 C          65.6682   96.1226   -3.3519 C.ar    1  UNL1        0.2335
     14 N          66.1735   96.5284   -4.7046 N.ar    1  UNL1       -0.1891
     15 C          65.5878   95.9115   -5.9401 C.ar    1  UNL1        0.2027
     16 N          64.4969   94.8887   -5.8228 N.ar    1  UNL1       -0.2091
     17 C          63.9916   94.4828   -4.4701 C.ar    1  UNL1        0.1361
     18 N          62.9007   93.4600   -4.3528 N.pl3   1  UNL1       -0.3423
     19 C          64.5772   95.0998   -3.2346 C.ar    1  UNL1        0.1380
     20 C          63.9333   94.5574   -1.9931 C.2     1  UNL1        0.2601
     21 O          62.8594   93.5331   -2.2113 O.2     1  UNL1       -0.2693
     22 H          62.5163   93.0551   -5.1637 H       1  UNL1        0.1437
     23 H          62.5690   93.1937   -3.4649 H       1  UNL1        0.1437
     24 C          60.9252   92.0092    3.5311 C.1     1  UNL1       -0.0651
     25 C          60.1011   91.2855    4.5546 C.1     1  UNL1       -0.0880
     26 C          59.2772   90.5619    5.5779 C.3     1  UNL1        0.0595
     27 C          60.4699   89.7327    5.9520 C.3     1  UNL1        0.0134
     28 C          58.0845   91.3910    5.2038 C.3     1  UNL1        0.0134
     29 C          58.4532   89.8382    6.6013 C.3     1  UNL1        0.0537
     30 C          59.1044   88.8586    7.5322 C.2     1  UNL1        0.0513
     31 O          58.9371   87.3851    7.3072 O.co2   1  UNL1       -0.5491
     32 O          59.9230   89.3527    8.6880 O.co2   1  UNL1       -0.5491
@<TRIPOS>UNITY_ATOM_ATTR
31 1
charge -1
@<TRIPOS>BOND
     1     1     2    1
     2     2     3   ar
     3     3     4   ar
     4     4     9    1
     5     9    10    1
     6    10    11    1
     7    11    12    1
     8    12    13    1
     9    13    14   ar
    10    14    15   ar
    11    15    16   ar
    12    16    17   ar
    13    17    18    1
    14    17    19   ar
    15    19    20    1
    16    20    21    2
    17     4     5   ar
    18     5     6   ar
    19     6     7    1
    20     6     8   ar
    21     8    24    1
    22    24    25    3
    23    25    26    1
    24    26    27    1
    25    26    28    1
    26    26    29    1
    27    29    30    1
    28    30    31   ar
    29    30    32   ar
    30     8     2   ar
    31    20     9   am
    32    19    13   ar
    33    18    22    1
    34    18    23    1
@<TRIPOS>MOLECULE
*****
 32 34 0 0 0
SMALL
GASTEIGER

@<TRIPOS>ATOM
      1 C          62.5302   90.7428    4.3749 C.3     1  UNL1        0.0317
      2 C          61.2990   91.4774    3.9340 C.ar    1  UNL1       -0.0133
      3 C          61.3710   92.4410    2.7866 C.ar    1  UNL1        0.0112
      4 C          60.1397   93.1756    2.3457 C.ar    1  UNL1        0.0537
      5 C          58.8364   92.9467    3.0522 C.ar    1  UNL1        0.0112
      6 C          58.7644   91.9831    4.1995 C.ar    1  UNL1       -0.0133
      7 C          57.4612   91.7542    4.9059 C.3     1  UNL1        0.0317
      8 C          59.9957   91.2485    4.6404 C.ar    1  UNL1        0.0338
      9 N          60.2118   94.1391    1.1985 N.am    1  UNL1       -0.2511
     10 C          60.8191   95.4753    1.5078 C.3     1  UNL1        0.1458
     11 C          61.0317   96.6415    0.5886 C.3     1  UNL1        0.2289
     12 O          60.6893   96.7594   -0.8670 O.3     1  UNL1       -0.4581
     13 C          60.0498   95.7404   -1.7630 C.ar    1  UNL1        0.2335
     14 N          59.8833   96.2651   -3.1583 N.ar    1  UNL1       -0.1891
     15 C          59.2617   95.4011   -4.2152 C.ar    1  UNL1        0.2027
     16 N          58.8067   94.0124   -3.8768 N.ar    1  UNL1       -0.2091
     17 C          58.9733   93.4877   -2.4815 C.ar    1  UNL1        0.1361
     18 N          58.5183   92.0990   -2.1431 N.pl3   1  UNL1       -0.3423
     19 C          59.5948   94.3517   -1.4246 C.ar    1  UNL1        0.1380
     20 C          59.6669   93.6392   -0.1066 C.2     1  UNL1        0.2601
     21 O          59.1221   92.2417   -0.0917 O.2     1  UNL1       -0.2693
     22 H          58.1103   91.5319   -2.8368 H       1  UNL1        0.1437
     23 H          58.6276   91.7547   -1.2272 H       1  UNL1        0.1437
     24 C          59.9236   90.2850    5.7877 C.1     1  UNL1       -0.0651
     25 C          59.8516   89.3214    6.9351 C.1     1  UNL1       -0.0880
     26 C          59.7796   88.3579    8.0824 C.3     1  UNL1        0.0595
     27 C          59.1951   87.3182    7.1726 C.3     1  UNL1        0.0134
     28 C          60.3640   89.3974    8.9922 C.3     1  UNL1        0.0134
     29 C          59.7075   87.3943    9.2298 C.3     1  UNL1        0.0537
     30 C          60.9688   86.8953    9.8704 C.2     1  UNL1        0.0513
     31 O          61.0707   86.8166   11.3648 O.co2   1  UNL1       -0.5491
     32 O          62.1281   86.4749    9.0164 O.co2   1  UNL1       -0.5491
@<TRIPOS>UNITY_ATOM_ATTR
31 1
charge -1
@<TRIPOS>BOND
     1     1     2    1
     2     2     3   ar
     3     3     4   ar
     4     4     9    1
     5     9    10    1
     6    10    11    1
     7    11    12    1
     8    12    13    1
     9    13    14   ar
    10    14    15   ar
    11    15    16   ar
    12    16    17   ar
    13    17    18    1
    14    17    19   ar
    15    19    20    1
    16    20    21    2
    17     4     5   ar
    18     5     6   ar
    19     6     7    1
    20     6     8   ar
    21     8    24    1
    22    24    25    3
    23    25    26    1
    24    26    27    1
    25    26    28    1
    26    26    29    1
    27    29    30    1
    28    30    31   ar
    29    30    32   ar
    30     8     2   ar
    31    20     9   am
    32    19    13   ar
    33    18    22    1
    34    18    23    1
@<TRIPOS>MOLECULE
*****
 32 34 0 0 0
SMALL
GASTEIGER

@<TRIPOS>ATOM
      1 C          60.1756   86.0573    7.8845 C.3     1  UNL1        0.0317
      2 C          60.8899   86.7923    8.9797 C.ar    1  UNL1       -0.0133
      3 C          61.5335   86.0292   10.0994 C.ar    1  UNL1        0.0112
      4 C          62.2478   86.7642   11.1946 C.ar    1  UNL1        0.0537
      5 C          62.3186   88.2624   11.1702 C.ar    1  UNL1        0.0112
      6 C          61.6750   89.0255   10.0506 C.ar    1  UNL1       -0.0133
      7 C          61.7457   90.5236   10.0263 C.3     1  UNL1        0.0317
      8 C          60.9606   88.2905    8.9554 C.ar    1  UNL1        0.0338
      9 N          62.8913   86.0011   12.3141 N.am    1  UNL1       -0.2511
     10 C          63.5075   86.8335   13.3993 C.3     1  UNL1        0.1458
     11 C          64.2182   86.3769   14.6388 C.3     1  UNL1        0.2289
     12 O          64.4882   84.9751   15.0993 O.3     1  UNL1       -0.4581
     13 C          64.1142   83.6837   14.4341 C.ar    1  UNL1        0.2335
     14 N          64.5767   82.5016   15.2333 N.ar    1  UNL1       -0.1891
     15 C          64.3028   81.1109   14.7424 C.ar    1  UNL1        0.2027
     16 N          63.5665   80.9024   13.4523 N.ar    1  UNL1       -0.2091
     17 C          63.1040   82.0845   12.6531 C.ar    1  UNL1        0.1361
     18 N          62.3677   81.8760   11.3630 N.pl3   1  UNL1       -0.3423
     19 C          63.3779   83.4752   13.1441 C.ar    1  UNL1        0.1380
     20 C          62.8337   84.5066   12.2006 C.2     1  UNL1        0.2601
     21 O          62.1400   83.9727   10.9824 O.2     1  UNL1       -0.2693
     22 H          62.1879   80.9633   11.0408 H       1  UNL1        0.1437
     23 H          62.0641   82.6519   10.8385 H       1  UNL1        0.1437
     24 C          60.3171   89.0536    7.8359 C.1     1  UNL1       -0.0651
     25 C          59.6735   89.8167    6.7162 C.1     1  UNL1       -0.0880
     26 C          59.0299   90.5798    5.5967 C.3     1  UNL1        0.0595
     27 C          57.6751   90.2342    6.1399 C.3     1  UNL1        0.0134
     28 C          60.3847   90.9254    5.0535 C.3     1  UNL1        0.0134
     29 C          58.3863   91.3429    4.4771 C.3     1  UNL1        0.0537
     30 C          59.0352   92.5874    3.9475 C.2     1  UNL1        0.0513
     31 O          59.3452   93.7246    4.8751 O.co2   1  UNL1       -0.5491
     32 O          59.3741   92.6944    2.4901 O.co2   1  UNL1       -0.5491
@<TRIPOS>UNITY_ATOM_ATTR
31 1
charge -1
@<TRIPOS>BOND
     1     1     2    1
     2     2     3   ar
     3     3     4   ar
     4     4     9    1
     5     9    10    1
     6    10    11    1
     7    11    12    1
     8    12    13    1
     9    13    14   ar
    10    14    15   ar
    11    15    16   ar
    12    16    17   ar
    13    17    18    1
    14    17    19   ar
    15    19    20    1
    16    20    21    2
    17     4     5   ar
    18     5     6   ar
    19     6     7    1
    20     6     8   ar
    21     8    24    1
    22    24    25    3
    23    25    26    1
    24    26    27    1
    25    26    28    1
    26    26    29    1
    27    29    30    1
    28    30    31   ar
    29    30    32   ar
    30     8     2   ar
    31    20     9   am
    32    19    13   ar
    33    18    22    1
    34    18    23    1
@<TRIPOS>MOLECULE
*****
 32 34 0 0 0
SMALL
GASTEIGER

@<TRIPOS>ATOM
      1 C          72.4696   78.8681   15.3331 C.3     1  UNL1        0.0317
      2 C          72.4617   78.4467   13.8935 C.ar    1  UNL1       -0.0133
      3 C          72.5145   79.4814   12.8088 C.ar    1  UNL1        0.0112
      4 C          72.5066   79.0600   11.3692 C.ar    1  UNL1        0.0537
      5 C          72.4458   77.6038   11.0143 C.ar    1  UNL1        0.0112
      6 C          72.3929   76.5691   12.0991 C.ar    1  UNL1       -0.0133
      7 C          72.3322   75.1130   11.7442 C.3     1  UNL1        0.0317
      8 C          72.4009   76.9905   13.5386 C.ar    1  UNL1        0.0338
      9 N          72.5594   80.0946   10.2846 N.am    1  UNL1       -0.2511
     10 C          72.2440   81.4986   10.7084 C.3     1  UNL1        0.1458
     11 C          72.2120   82.7433    9.8718 C.3     1  UNL1        0.2289
     12 O          72.4874   82.8913    8.4048 O.3     1  UNL1       -0.4581
     13 C          72.8629   81.8314    7.4119 C.ar    1  UNL1        0.2335
     14 N          73.0492   82.4074    6.0395 N.ar    1  UNL1       -0.1891
     15 C          73.4283   81.5135    4.8962 C.ar    1  UNL1        0.2027
     16 N          73.6211   80.0437    5.1253 N.ar    1  UNL1       -0.2091
     17 C          73.4348   79.4678    6.4976 C.ar    1  UNL1        0.1361
     18 N          73.6275   77.9979    6.7267 N.pl3   1  UNL1       -0.3423
     19 C          73.0556   80.3616    7.6410 C.ar    1  UNL1        0.1380
     20 C          72.9206   79.5887    8.9194 C.2     1  UNL1        0.2601
     21 O          73.1812   78.1149    8.8195 O.2     1  UNL1       -0.2693
     22 H          73.8764   77.4113    5.9763 H       1  UNL1        0.1437
     23 H          73.5052   77.6199    7.6275 H       1  UNL1        0.1437
     24 C          72.3481   75.9558   14.6233 C.1     1  UNL1       -0.0651
     25 C          72.2952   74.9211   15.7080 C.1     1  UNL1       -0.0880
     26 C          72.2424   73.8864   16.7927 C.3     1  UNL1        0.0595
     27 C          70.8517   73.5149   16.3706 C.3     1  UNL1        0.0134
     28 C          73.6330   74.2578   17.2147 C.3     1  UNL1        0.0134
     29 C          72.1895   72.8516   17.8774 C.3     1  UNL1        0.0537
     30 C          71.0437   72.8379   18.8455 C.2     1  UNL1        0.0513
     31 O          70.1473   71.6382   18.9296 O.co2   1  UNL1       -0.5491
     32 O          70.7945   74.0239   19.7294 O.co2   1  UNL1       -0.5491
@<TRIPOS>UNITY_ATOM_ATTR
31 1
charge -1
@<TRIPOS>BOND
     1     1     2    1
     2     2     3   ar
     3     3     4   ar
     4     4     9    1
     5     9    10    1
     6    10    11    1
     7    11    12    1
     8    12    13    1
     9    13    14   ar
    10    14    15   ar
    11    15    16   ar
    12    16    17   ar
    13    17    18    1
    14    17    19   ar
    15    19    20    1
    16    20    21    2
    17     4     5   ar
    18     5     6   ar
    19     6     7    1
    20     6     8   ar
    21     8    24    1
    22    24    25    3
    23    25    26    1
    24    26    27    1
    25    26    28    1
    26    26    29    1
    27    29    30    1
    28    30    31   ar
    29    30    32   ar
    30     8     2   ar
    31    20     9   am
    32    19    13   ar
    33    18    22    1
    34    18    23    1
@<TRIPOS>MOLECULE
*****
 32 34 0 0 0
SMALL
GASTEIGER

@<TRIPOS>ATOM
      1 C          63.1619   86.4064   12.5954 C.3     1  UNL1        0.0317
      2 C          63.3051   87.8877   12.4077 C.ar    1  UNL1       -0.0133
      3 C          63.9582   88.7189   13.4719 C.ar    1  UNL1        0.0112
      4 C          64.1013   90.2002   13.2842 C.ar    1  UNL1        0.0537
      5 C          63.5914   90.8504   12.0322 C.ar    1  UNL1        0.0112
      6 C          62.9383   90.0191   10.9680 C.ar    1  UNL1       -0.0133
      7 C          62.4285   90.6692    9.7160 C.3     1  UNL1        0.0317
      8 C          62.7952   88.5378   11.1557 C.ar    1  UNL1        0.0338
      9 N          64.7544   91.0314   14.3483 N.am    1  UNL1       -0.2511
     10 C          63.9160   91.3137   15.5597 C.3     1  UNL1        0.1458
     11 C          64.2756   92.1047   16.7825 C.3     1  UNL1        0.2289
     12 O          65.5625   92.8088   17.0957 O.3     1  UNL1       -0.4581
     13 C          66.8076   92.8959   16.2637 C.ar    1  UNL1        0.2335
     14 N          67.8704   93.7014   16.9504 N.ar    1  UNL1       -0.1891
     15 C          69.1988   93.9113   16.2863 C.ar    1  UNL1        0.2027
     16 N          69.4645   93.3157   14.9355 N.ar    1  UNL1       -0.2091
     17 C          68.4018   92.5102   14.2488 C.ar    1  UNL1        0.1361
     18 N          68.6675   91.9145   12.8980 N.pl3   1  UNL1       -0.3423
     19 C          67.0733   92.3003   14.9129 C.ar    1  UNL1        0.1380
     20 C          66.1595   91.4705   14.0605 C.2     1  UNL1        0.2601
     21 O          66.7258   91.0203   12.7465 O.2     1  UNL1       -0.2693
     22 H          69.5394   92.0523   12.4621 H       1  UNL1        0.1437
     23 H          67.9699   91.3858   12.4473 H       1  UNL1        0.1437
     24 C          62.1421   87.7066   10.0915 C.1     1  UNL1       -0.0651
     25 C          61.4890   86.8753    9.0272 C.1     1  UNL1       -0.0880
     26 C          60.8360   86.0441    7.9631 C.3     1  UNL1        0.0595
     27 C          62.0281   85.1338    7.9424 C.3     1  UNL1        0.0134
     28 C          59.6439   86.9543    7.9837 C.3     1  UNL1        0.0134
     29 C          60.1829   85.2129    6.8988 C.3     1  UNL1        0.0537
     30 C          61.0216   84.3618    5.9919 C.2     1  UNL1        0.0513
     31 O          62.3295   84.8816    5.4731 O.co2   1  UNL1       -0.5491
     32 O          60.5523   82.9909    5.6039 O.co2   1  UNL1       -0.5491
@<TRIPOS>UNITY_ATOM_ATTR
31 1
charge -1
@<TRIPOS>BOND
     1     1     2    1
     2     2     3   ar
     3     3     4   ar
     4     4     9    1
     5     9    10    1
     6    10    11    1
     7    11    12    1
     8    12    13    1
     9    13    14   ar
    10    14    15   ar
    11    15    16   ar
    12    16    17   ar
    13    17    18    1
    14    17    19   ar
    15    19    20    1
    16    20    21    2
    17     4     5   ar
    18     5     6   ar
    19     6     7    1
    20     6     8   ar
    21     8    24    1
    22    24    25    3
    23    25    26    1
    24    26    27    1
    25    26    28    1
    26    26    29    1
    27    29    30    1
    28    30    31   ar
    29    30    32   ar
    30     8     2   ar
    31    20     9   am
    32    19    13   ar
    33    18    22    1
    34    18    23    1
@<TRIPOS>MOLECULE
*****
 32 34 0 0 0
SMALL
GASTEIGER

@<TRIPOS>ATOM
      1 C          57.7809   92.0114    4.7299 C.3     1  UNL1        0.0317
      2 C          59.1029   92.1290    4.0311 C.ar    1  UNL1       -0.0133
      3 C          59.2531   93.0558    2.8612 C.ar    1  UNL1        0.0112
      4 C          60.5751   93.1734    2.1624 C.ar    1  UNL1        0.0537
      5 C          61.7471   92.3642    2.6334 C.ar    1  UNL1        0.0112
      6 C          61.5969   91.4374    3.8032 C.ar    1  UNL1       -0.0133
      7 C          62.7688   90.6282    4.2742 C.3     1  UNL1        0.0317
      8 C          60.2749   91.3198    4.5021 C.ar    1  UNL1        0.0338
      9 N          60.7253   94.1001    0.9926 N.am    1  UNL1       -0.2511
     10 C          59.5060   94.8960    0.6320 C.3     1  UNL1        0.1458
     11 C          59.3350   95.8968   -0.4722 C.3     1  UNL1        0.2289
     12 O          60.3413   96.3489   -1.4885 O.3     1  UNL1       -0.4581
     13 C          61.7670   95.9119   -1.6518 C.ar    1  UNL1        0.2335
     14 N          62.4275   96.6150   -2.8004 N.ar    1  UNL1       -0.1891
     15 C          63.8595   96.3210   -3.1362 C.ar    1  UNL1        0.2027
     16 N          64.6310   95.3240   -2.3233 N.ar    1  UNL1       -0.2091
     17 C          63.9705   94.6209   -1.1747 C.ar    1  UNL1        0.1361
     18 N          64.7420   93.6239   -0.3619 N.pl3   1  UNL1       -0.3423
     19 C          62.5384   94.9149   -0.8390 C.ar    1  UNL1        0.1380
     20 C          62.0748   94.1086    0.3379 C.2     1  UNL1        0.2601
     21 O          63.0958   93.1891    0.9396 O.2     1  UNL1       -0.2693
     22 H          65.6819   93.4309   -0.5823 H       1  UNL1        0.1437
     23 H          64.3084   93.1624    0.3920 H       1  UNL1        0.1437
     24 C          60.1248   90.3930    5.6719 C.1     1  UNL1       -0.0651
     25 C          59.9747   89.4662    6.8418 C.1     1  UNL1       -0.0880
     26 C          59.8246   88.5395    8.0116 C.3     1  UNL1        0.0595
     27 C          60.3922   89.5915    8.9179 C.3     1  UNL1        0.0134
     28 C          59.2570   87.4876    7.1054 C.3     1  UNL1        0.0134
     29 C          59.6745   87.6127    9.1815 C.3     1  UNL1        0.0537
     30 C          60.8919   87.0844    9.8808 C.2     1  UNL1        0.0513
     31 O          62.0620   86.5931    9.0813 O.co2   1  UNL1       -0.5491
     32 O          60.9390   87.0476   11.3796 O.co2   1  UNL1       -0.5491
@<TRIPOS>UNITY_ATOM_ATTR
31 1
charge -1
@<TRIPOS>BOND
     1     1     2    1
     2     2     3   ar
     3     3     4   ar
     4     4     9    1
     5     9    10    1
     6    10    11    1
     7    11    12    1
     8    12    13    1
     9    13    14   ar
    10    14    15   ar
    11    15    16   ar
    12    16    17   ar
    13    17    18    1
    14    17    19   ar
    15    19    20    1
    16    20    21    2
    17     4     5   ar
    18     5     6   ar
    19     6     7    1
    20     6     8   ar
    21     8    24    1
    22    24    25    3
    23    25    26    1
    24    26    27    1
    25    26    28    1
    26    26    29    1
    27    29    30    1
    28    30    31   ar
    29    30    32   ar
    30     8     2   ar
    31    20     9   am
    32    19    13   ar
    33    18    22    1
    34    18    23    1
