@<TRIPOS>MOLECULE
*****
 43 47 0 0 0
SMALL
GASTEIGER

@<TRIPOS>ATOM
      1 C          61.8454   88.3949   11.4762 C.ar    1  UNL1        0.0040
      2 C          61.5637   87.2232   10.5830 C.ar    1  UNL1        0.0719
      3 C          62.2488   86.0221   11.1643 C.ar    1  UNL1        0.1049
      4 N          62.9538   86.4514   12.4168 N.ar    1  UNL1       -0.2242
      5 N          63.7906   85.6965   13.4066 N.ar    1  UNL1       -0.1422
      6 C          64.3781   86.4081   14.5891 C.ar    1  UNL1        0.2211
      7 N          64.1288   87.8746   14.7819 N.ar    1  UNL1       -0.2060
      8 C          63.2920   88.6295   13.7921 C.ar    1  UNL1        0.1515
      9 C          62.7045   87.9179   12.6095 C.ar    1  UNL1        0.1107
     10 C          60.7414   87.2482    9.3287 C.ar    1  UNL1        0.2525
     11 N          60.3478   86.0556    8.5086 N.ar    1  UNL1       -0.1057
     12 N          59.5314   86.5405    7.3474 N.ar    1  UNL1       -0.0923
     13 C          59.4205   88.0329    7.4499 C.ar    1  UNL1        0.3086
     14 O          60.1683   88.4703    8.6744 O.2     1  UNL1       -0.4048
     15 N          58.6901   88.9304    6.4954 N.pl3   1  UNL1       -0.2871
     16 H          57.7122   88.8608    6.4047 H       1  UNL1        0.1512
     17 C          59.4495   89.9339    5.6791 C.3     1  UNL1        0.0912
     18 C          58.9877   91.3600    5.6246 C.3     1  UNL1        0.0227
     19 C          57.9974   91.7883    4.5827 C.3     1  UNL1        0.0186
     20 C          56.5266   91.6970    4.8633 C.3     1  UNL1        0.0652
     21 N          55.9463   90.4299    5.4182 N.3     1  UNL1       -0.3211
     22 H          56.0349   89.6844    4.7277 H       1  UNL1        0.1189
     23 H          54.9607   90.5749    5.6375 H       1  UNL1        0.1189
     24 C          62.2170   90.7984   10.5623 C.3     1  UNL1        0.0047
     25 C          61.3541   89.7974   11.2719 C.3     1  UNL1        0.0241
     26 C          60.0002   90.1989   11.7772 C.3     1  UNL1        0.0047
     27 N          63.0426   90.0960   13.9848 N.pl3   1  UNL1       -0.2949
     28 H          62.1205   90.4404   14.0029 H       1  UNL1        0.1537
     29 C          64.1983   91.0379   14.1500 C.ar    1  UNL1        0.0775
     30 C          64.9019   91.5810   12.9417 C.ar    1  UNL1        0.0237
     31 C          66.0575   92.5229   13.1069 C.ar    1  UNL1        0.0821
     32 C          66.5096   92.9217   14.4804 C.ar    1  UNL1        0.1468
     33 F          67.6653   93.8637   14.6456 F       1  UNL1       -0.2039
     34 C          65.8060   92.3787   15.6887 C.ar    1  UNL1        0.0607
     35 C          64.6503   91.4367   15.5235 C.ar    1  UNL1        0.1557
     36 F          63.9468   90.8937   16.7318 F       1  UNL1       -0.2028
     37 C          66.7611   93.0660   11.8985 C.2     1  UNL1        0.2480
     38 O          68.0017   92.3949   11.3883 O.2     1  UNL1       -0.2701
     39 N          66.2240   94.2802   11.2005 N.am    1  UNL1       -0.3024
     40 H          65.4097   94.7207   11.5354 H       1  UNL1        0.1497
     41 C          66.9276   94.8234    9.9922 C.3     1  UNL1        0.0720
     42 C          67.4108   95.9928    9.1866 C.3     1  UNL1        0.0213
     43 C          67.6630   94.5948    8.7051 C.3     1  UNL1        0.0213
@<TRIPOS>BOND
     1    24    25    1
     2    25    26    1
     3    25     1    1
     4     1     2   ar
     5     2    10    1
     6    10    11   ar
     7    11    12   ar
     8    12    13   ar
     9    13    15    1
    10    15    17    1
    11    17    18    1
    12    18    19    1
    13    19    20    1
    14    20    21    1
    15    13    14   ar
    16     2     3   ar
    17     3     4   ar
    18     4     5   ar
    19     5     6   ar
    20     6     7   ar
    21     7     8   ar
    22     8    27    1
    23    27    29    1
    24    29    30   ar
    25    30    31   ar
    26    31    37    1
    27    37    38    2
    28    37    39   am
    29    39    41    1
    30    41    42    1
    31    42    43    1
    32    31    32   ar
    33    32    33    1
    34    32    34   ar
    35    34    35   ar
    36    35    36    1
    37     8     9   ar
    38     9     1   ar
    39    14    10   ar
    40     9     4   ar
    41    35    29   ar
    42    43    41    1
    43    15    16    1
    44    21    22    1
    45    21    23    1
    46    27    28    1
    47    39    40    1
@<TRIPOS>MOLECULE
*****
 43 47 0 0 0
SMALL
GASTEIGER

@<TRIPOS>ATOM
      1 C          61.7699   88.4742   11.3620 C.ar    1  UNL1        0.0040
      2 C          61.4640   87.3194   10.4550 C.ar    1  UNL1        0.0719
      3 C          62.1415   86.1018   11.0104 C.ar    1  UNL1        0.1049
      4 N          62.8660   86.5041   12.2607 N.ar    1  UNL1       -0.2242
      5 N          63.7052   85.7248   13.2294 N.ar    1  UNL1       -0.1422
      6 C          64.3148   86.4118   14.4153 C.ar    1  UNL1        0.2211
      7 N          64.0851   87.8781   14.6326 N.ar    1  UNL1       -0.2060
      8 C          63.2459   88.6574   13.6639 C.ar    1  UNL1        0.1515
      9 C          62.6364   87.9704   12.4780 C.ar    1  UNL1        0.1107
     10 C          60.6276   87.3727    9.2110 C.ar    1  UNL1        0.2525
     11 N          60.1421   86.1918    8.4237 N.ar    1  UNL1       -0.1057
     12 N          59.3442   86.7056    7.2620 N.ar    1  UNL1       -0.0923
     13 C          59.3366   88.2039    7.3313 C.ar    1  UNL1        0.3086
     14 O          60.1297   88.6162    8.5359 O.2     1  UNL1       -0.4048
     15 N          58.6554   89.1278    6.3657 N.pl3   1  UNL1       -0.2871
     16 H          57.7256   88.9554    6.0921 H       1  UNL1        0.1512
     17 C          59.3910   90.3144    5.8170 C.3     1  UNL1        0.0912
     18 C          58.6714   91.3110    4.9575 C.3     1  UNL1        0.0227
     19 C          59.3440   92.5964    4.5761 C.3     1  UNL1        0.0186
     20 C          60.0140   92.7248    3.2402 C.3     1  UNL1        0.0652
     21 N          59.1876   92.7952    1.9903 N.3     1  UNL1       -0.3211
     22 H          58.7021   91.9087    1.8533 H       1  UNL1        0.1189
     23 H          59.7947   92.9774    1.1912 H       1  UNL1        0.1189
     24 C          59.9290   90.2823   11.6661 C.3     1  UNL1        0.0047
     25 C          61.2930   89.8853   11.1843 C.3     1  UNL1        0.0241
     26 C          62.1799   90.8993   10.5248 C.3     1  UNL1        0.0047
     27 N          63.0162   90.1237   13.8812 N.pl3   1  UNL1       -0.2949
     28 H          62.0991   90.4816   13.8952 H       1  UNL1        0.1537
     29 C          64.1837   91.0448   14.0773 C.ar    1  UNL1        0.0775
     30 C          64.8864   91.6287   12.8876 C.ar    1  UNL1        0.0237
     31 C          66.0539   92.5498   13.0837 C.ar    1  UNL1        0.0821
     32 C          66.5188   92.8870   14.4694 C.ar    1  UNL1        0.1468
     33 F          67.6864   93.8081   14.6654 F       1  UNL1       -0.2039
     34 C          65.8162   92.3031   15.6590 C.ar    1  UNL1        0.0607
     35 C          64.6486   91.3819   15.4630 C.ar    1  UNL1        0.1557
     36 F          63.9460   90.7980   16.6526 F       1  UNL1       -0.2028
     37 C          66.7566   93.1338   11.8940 C.2     1  UNL1        0.2480
     38 O          67.9867   92.4703   11.3492 O.2     1  UNL1       -0.2701
     39 N          66.2292   94.3811   11.2491 N.am    1  UNL1       -0.3024
     40 H          65.4219   94.8165   11.6066 H       1  UNL1        0.1497
     41 C          66.9318   94.9651   10.0594 C.3     1  UNL1        0.0720
     42 C          67.7137   94.7805    8.7927 C.3     1  UNL1        0.0213
     43 C          67.3670   96.1611    9.2656 C.3     1  UNL1        0.0213
@<TRIPOS>BOND
     1    24    25    1
     2    25    26    1
     3    25     1    1
     4     1     2   ar
     5     2    10    1
     6    10    11   ar
     7    11    12   ar
     8    12    13   ar
     9    13    15    1
    10    15    17    1
    11    17    18    1
    12    18    19    1
    13    19    20    1
    14    20    21    1
    15    13    14   ar
    16     2     3   ar
    17     3     4   ar
    18     4     5   ar
    19     5     6   ar
    20     6     7   ar
    21     7     8   ar
    22     8    27    1
    23    27    29    1
    24    29    30   ar
    25    30    31   ar
    26    31    37    1
    27    37    38    2
    28    37    39   am
    29    39    41    1
    30    41    42    1
    31    42    43    1
    32    31    32   ar
    33    32    33    1
    34    32    34   ar
    35    34    35   ar
    36    35    36    1
    37     8     9   ar
    38     9     1   ar
    39    14    10   ar
    40     9     4   ar
    41    35    29   ar
    42    43    41    1
    43    15    16    1
    44    21    22    1
    45    21    23    1
    46    27    28    1
    47    39    40    1
@<TRIPOS>MOLECULE
*****
 43 47 0 0 0
SMALL
GASTEIGER

@<TRIPOS>ATOM
      1 C          62.4182   87.6314   11.8076 C.ar    1  UNL1        0.0040
      2 C          62.2999   86.3798   10.9893 C.ar    1  UNL1        0.0719
      3 C          62.9792   85.2711   11.7372 C.ar    1  UNL1        0.1049
      4 N          63.5173   85.8375   13.0177 N.ar    1  UNL1       -0.2242
      5 N          64.2782   85.2133   14.1497 N.ar    1  UNL1       -0.1422
      6 C          64.6925   86.0479   15.3252 C.ar    1  UNL1        0.2211
      7 N          64.3458   87.5066   15.3687 N.ar    1  UNL1       -0.2060
      8 C          63.5849   88.1308   14.2367 C.ar    1  UNL1        0.1515
      9 C          63.1706   87.2962   13.0612 C.ar    1  UNL1        0.1107
     10 C          61.6214   86.2583    9.6571 C.ar    1  UNL1        0.2525
     11 N          62.1463   85.5148    8.4648 N.ar    1  UNL1       -0.1057
     12 N          61.1482   85.6560    7.3540 N.ar    1  UNL1       -0.0923
     13 C          60.0063   86.4868    7.8598 C.ar    1  UNL1        0.3086
     14 O          60.2988   86.8591    9.2832 O.2     1  UNL1       -0.4048
     15 N          58.7862   86.8769    7.0793 N.pl3   1  UNL1       -0.2871
     16 H          58.1829   86.1821    6.7292 H       1  UNL1        0.1512
     17 C          58.4853   88.3255    6.8323 C.3     1  UNL1        0.0912
     18 C          59.6015   89.2843    6.5413 C.3     1  UNL1        0.0227
     19 C          59.3063   90.7420    6.3467 C.3     1  UNL1        0.0186
     20 C          58.4240   91.1843    5.2171 C.3     1  UNL1        0.0652
     21 N          58.5673   92.5656    4.6501 N.3     1  UNL1       -0.3211
     22 H          58.2989   93.2521    5.3551 H       1  UNL1        0.1189
     23 H          57.9632   92.6625    3.8339 H       1  UNL1        0.1189
     24 C          60.4668   89.3467   11.7881 C.3     1  UNL1        0.0047
     25 C          61.8788   88.9812   11.4374 C.3     1  UNL1        0.0241
     26 C          62.7513   89.9656   10.7165 C.3     1  UNL1        0.0047
     27 N          63.2382   89.5895   14.2803 N.pl3   1  UNL1       -0.2949
     28 H          62.2980   89.8742   14.2150 H       1  UNL1        0.1537
     29 C          64.3239   90.6145   14.4233 C.ar    1  UNL1        0.0775
     30 C          65.1995   90.9480   13.2519 C.ar    1  UNL1        0.0237
     31 C          66.2853   91.9730   13.3949 C.ar    1  UNL1        0.0821
     32 C          66.4955   92.6645   14.7093 C.ar    1  UNL1        0.1468
     33 F          67.5813   93.6896   14.8523 F       1  UNL1       -0.2039
     34 C          65.6199   92.3311   15.8806 C.ar    1  UNL1        0.0607
     35 C          64.5341   91.3060   15.7377 C.ar    1  UNL1        0.1557
     36 F          63.6586   90.9726   16.9090 F       1  UNL1       -0.2028
     37 C          67.1609   92.3065   12.2235 C.2     1  UNL1        0.2480
     38 O          68.6141   91.9352   12.2436 O.2     1  UNL1       -0.2701
     39 N          66.5833   93.0114   11.0320 N.am    1  UNL1       -0.3024
     40 H          65.6296   93.2551   11.0189 H       1  UNL1        0.1497
     41 C          67.4589   93.3449    9.8607 C.3     1  UNL1        0.0720
     42 C          68.4291   92.9158    8.8002 C.3     1  UNL1        0.0213
     43 C          68.0051   94.3517    8.8922 C.3     1  UNL1        0.0213
@<TRIPOS>BOND
     1    24    25    1
     2    25    26    1
     3    25     1    1
     4     1     2   ar
     5     2    10    1
     6    10    11   ar
     7    11    12   ar
     8    12    13   ar
     9    13    15    1
    10    15    17    1
    11    17    18    1
    12    18    19    1
    13    19    20    1
    14    20    21    1
    15    13    14   ar
    16     2     3   ar
    17     3     4   ar
    18     4     5   ar
    19     5     6   ar
    20     6     7   ar
    21     7     8   ar
    22     8    27    1
    23    27    29    1
    24    29    30   ar
    25    30    31   ar
    26    31    37    1
    27    37    38    2
    28    37    39   am
    29    39    41    1
    30    41    42    1
    31    42    43    1
    32    31    32   ar
    33    32    33    1
    34    32    34   ar
    35    34    35   ar
    36    35    36    1
    37     8     9   ar
    38     9     1   ar
    39    14    10   ar
    40     9     4   ar
    41    35    29   ar
    42    43    41    1
    43    15    16    1
    44    21    22    1
    45    21    23    1
    46    27    28    1
    47    39    40    1
@<TRIPOS>MOLECULE
*****
 43 47 0 0 0
SMALL
GASTEIGER

@<TRIPOS>ATOM
      1 C          62.9321   86.5535   12.0659 C.ar    1  UNL1        0.0040
      2 C          62.7956   85.5935   10.9215 C.ar    1  UNL1        0.0719
      3 C          62.1960   86.3349    9.7636 C.ar    1  UNL1        0.1049
      4 N          61.9619   87.7531   10.1924 N.ar    1  UNL1       -0.2242
      5 N          61.3933   88.9389    9.4709 N.ar    1  UNL1       -0.1422
      6 C          61.2797   90.2598   10.1724 C.ar    1  UNL1        0.2211
      7 N          61.7346   90.3950   11.5954 N.ar    1  UNL1       -0.2060
      8 C          62.3032   89.2092   12.3168 C.ar    1  UNL1        0.1515
      9 C          62.4169   87.8882   11.6153 C.ar    1  UNL1        0.1107
     10 C          63.1895   84.1461   10.9330 C.ar    1  UNL1        0.2525
     11 N          64.4181   83.5617   10.3014 N.ar    1  UNL1       -0.1057
     12 N          64.4119   82.0835   10.5561 N.ar    1  UNL1       -0.0923
     13 C          63.1795   81.7544   11.3453 C.ar    1  UNL1        0.3086
     14 O          62.4240   83.0291   11.5782 O.2     1  UNL1       -0.4048
     15 N          62.7737   80.3900   11.8185 N.pl3   1  UNL1       -0.2871
     16 H          62.5123   79.7004   11.1663 H       1  UNL1        0.1512
     17 C          62.7663   80.0763   13.2853 C.3     1  UNL1        0.0912
     18 C          62.0347   80.9725   14.2401 C.3     1  UNL1        0.0227
     19 C          60.5387   81.0661   14.1841 C.3     1  UNL1        0.0186
     20 C          59.7076   79.8176   14.2088 C.3     1  UNL1        0.0652
     21 N          58.4138   79.7928   14.9675 N.3     1  UNL1       -0.3211
     22 H          58.6026   79.8919   15.9649 H       1  UNL1        0.1189
     23 H          57.9372   78.9070   14.7980 H       1  UNL1        0.1189
     24 C          63.0084   85.0202   14.1620 C.3     1  UNL1        0.0047
     25 C          63.4865   86.2348   13.4228 C.3     1  UNL1        0.0241
     26 C          64.5189   87.1305   14.0405 C.3     1  UNL1        0.0047
     27 N          62.7582   89.3443   13.7398 N.pl3   1  UNL1       -0.2949
     28 H          62.3930   88.7472   14.4321 H       1  UNL1        0.1537
     29 C          63.7695   90.3891   14.1078 C.ar    1  UNL1        0.0775
     30 C          64.5558   91.0827   13.0350 C.ar    1  UNL1        0.0237
     31 C          65.5671   92.1276   13.4031 C.ar    1  UNL1        0.0821
     32 C          65.7922   92.4788   14.8439 C.ar    1  UNL1        0.1468
     33 F          66.8036   93.5237   15.2119 F       1  UNL1       -0.2039
     34 C          65.0060   91.7853   15.9167 C.ar    1  UNL1        0.0607
     35 C          63.9946   90.7404   15.5486 C.ar    1  UNL1        0.1557
     36 F          63.2084   90.0469   16.6214 F       1  UNL1       -0.2028
     37 C          66.3534   92.8212   12.3303 C.2     1  UNL1        0.2480
     38 O          67.7128   92.3140   11.9502 O.2     1  UNL1       -0.2701
     39 N          65.7801   94.0219   11.6378 N.am    1  UNL1       -0.3024
     40 H          64.8878   94.3547   11.8873 H       1  UNL1        0.1497
     41 C          66.5662   94.7155   10.5651 C.3     1  UNL1        0.0720
     42 C          67.5089   94.6542    9.3999 C.3     1  UNL1        0.0213
     43 C          66.9853   95.9781    9.8722 C.3     1  UNL1        0.0213
@<TRIPOS>BOND
     1    24    25    1
     2    25    26    1
     3    25     1    1
     4     1     2   ar
     5     2    10    1
     6    10    11   ar
     7    11    12   ar
     8    12    13   ar
     9    13    15    1
    10    15    17    1
    11    17    18    1
    12    18    19    1
    13    19    20    1
    14    20    21    1
    15    13    14   ar
    16     2     3   ar
    17     3     4   ar
    18     4     5   ar
    19     5     6   ar
    20     6     7   ar
    21     7     8   ar
    22     8    27    1
    23    27    29    1
    24    29    30   ar
    25    30    31   ar
    26    31    37    1
    27    37    38    2
    28    37    39   am
    29    39    41    1
    30    41    42    1
    31    42    43    1
    32    31    32   ar
    33    32    33    1
    34    32    34   ar
    35    34    35   ar
    36    35    36    1
    37     8     9   ar
    38     9     1   ar
    39    14    10   ar
    40     9     4   ar
    41    35    29   ar
    42    43    41    1
    43    15    16    1
    44    21    22    1
    45    21    23    1
    46    27    28    1
    47    39    40    1
