@<TRIPOS>MOLECULE
*****
 58 63 0 0 0
SMALL
GASTEIGER

@<TRIPOS>ATOM
      1 N          62.8034   84.0810    9.4616 N.3     1  UNL1       -0.1862
      2 C          62.1086   84.1510    8.1341 C.3     1  UNL1        0.1775
      3 C          61.3113   85.3677    7.7680 C.2     1  UNL1        0.2452
      4 O          60.6166   85.4376    6.4404 O.2     1  UNL1       -0.2732
      5 N          61.2088   86.5144    8.7295 N.am    1  UNL1       -0.2541
      6 C          60.4115   87.7311    8.3635 C.3     1  UNL1        0.1577
      7 C          60.3089   88.8778    9.3250 C.2     1  UNL1        0.2445
      8 O          59.5116   90.0945    8.9589 O.2     1  UNL1       -0.2731
      9 N          61.0037   88.8078   10.6526 N.am    1  UNL1       -0.2705
     10 C          61.8010   87.5912   11.0186 C.3     1  UNL1        0.1359
     11 C          61.9035   86.4444   10.0571 C.3     1  UNL1        0.1908
     12 N          62.7008   85.2277   10.4231 N.am    1  UNL1       -0.1863
     13 C          63.3956   85.1578   11.7507 C.2     1  UNL1        0.3191
     14 O          63.2930   86.3045   12.7122 O.2     1  UNL1       -0.2512
     15 N          64.1929   83.9411   12.1168 N.am    1  UNL1       -0.2836
     16 H          64.2602   83.1885   11.4857 H       1  UNL1        0.1513
     17 C          63.6007   82.8643    9.8277 C.3     1  UNL1        0.1188
     18 C          62.8226   81.1919   11.6572 C.2     1  UNL1       -0.0034
     19 C          62.8990   81.5964   10.2148 C.2     1  UNL1       -0.0071
     20 C          59.7167   87.8011    7.0360 C.3     1  UNL1        0.0556
     21 C          59.5783   89.1175    6.3304 C.ar    1  UNL1       -0.0198
     22 C          58.2304   89.7637    6.2060 C.ar    1  UNL1       -0.0011
     23 C          58.0919   91.0801    5.5005 C.ar    1  UNL1        0.0363
     24 C          59.3014   91.7504    4.9192 C.ar    1  UNL1        0.1337
     25 O          59.1630   93.0668    4.2136 O.3     1  UNL1       -0.5055
     26 C          60.6494   91.1042    5.0435 C.ar    1  UNL1        0.0363
     27 C          60.7879   89.7877    5.7491 C.ar    1  UNL1       -0.0011
     28 H          58.3210   93.4704    4.1359 H       1  UNL1        0.2922
     29 C          60.9011   89.9545   11.6141 C.3     1  UNL1        0.1217
     30 C          62.0308   90.2461   12.5570 C.ar    1  UNL1        0.0135
     31 C          61.9624   89.7722   13.9785 C.ar    1  UNL1       -0.0012
     32 C          63.0919   90.0637   14.9214 C.ar    1  UNL1       -0.0002
     33 C          64.2899   90.8290   14.4428 C.ar    1  UNL1        0.0016
     34 C          64.3582   91.3029   13.0213 C.ar    1  UNL1        0.0214
     35 C          65.4026   92.0735   12.2693 C.ar    1  UNL1        0.0731
     36 C          64.9185   92.2582   10.8616 C.ar    1  UNL1        0.0805
     37 N          63.5750   91.6018   10.7437 N.ar    1  UNL1       -0.3241
     38 C          62.7266   91.5457    9.5079 C.3     1  UNL1        0.1305
     39 C          63.2287   91.0114   12.0784 C.ar    1  UNL1        0.0577
     40 C          66.7029   92.5718   12.8270 C.2     1  UNL1        0.2603
     41 O          66.9316   94.0447   12.9950 O.2     1  UNL1       -0.2688
     42 N          67.7744   91.5972   13.2169 N.am    1  UNL1       -0.2457
     43 H          67.6243   90.6305   13.1066 H       1  UNL1        0.1693
     44 N          69.0747   92.0955   13.7746 N.3     1  UNL1       -0.2193
     45 H          69.2606   92.9944   13.3299 H       1  UNL1        0.1456
     46 C          69.2262   92.3038   15.2523 C.3     1  UNL1        0.1974
     47 C          68.7342   93.5715   15.8853 C.2     1  UNL1        0.3349
     48 O          69.6726   94.7252   16.0814 O.2     1  UNL1       -0.2485
     49 O          67.3038   93.6856   16.3223 O.3     1  UNL1       -0.4475
     50 C          66.4386   92.4618   16.3843 C.3     1  UNL1        0.2086
     51 C          65.0556   92.5494   16.9582 C.3     1  UNL1        0.0513
     52 C          64.8876   83.8711   13.4443 C.3     1  UNL1        0.1177
     53 C          64.2990   84.5656   14.6364 C.ar    1  UNL1       -0.0025
     54 C          63.1347   83.9567   15.3600 C.ar    1  UNL1       -0.0026
     55 C          62.5461   84.6512   16.5521 C.ar    1  UNL1       -0.0003
     56 C          63.1217   85.9547   17.0206 C.ar    1  UNL1       -0.0000
     57 C          64.2860   86.5638   16.2970 C.ar    1  UNL1       -0.0003
     58 C          64.8746   85.8692   15.1049 C.ar    1  UNL1       -0.0026
@<TRIPOS>BOND
     1    18    19    2
     2    19    17    1
     3    17     1    1
     4     1     2    1
     5     2     3    1
     6     3     4    2
     7     3     5   am
     8     5     6    1
     9     6    20    1
    10    20    21    1
    11    21    22   ar
    12    22    23   ar
    13    23    24   ar
    14    24    25    1
    15    24    26   ar
    16    26    27   ar
    17     6     7    1
    18     7     8    2
    19     7     9   am
    20     9    29    1
    21    29    30    1
    22    30    31   ar
    23    31    32   ar
    24    32    33   ar
    25    33    34   ar
    26    34    35   ar
    27    35    40    1
    28    40    41    2
    29    40    42   am
    30    42    44    1
    31    44    46    1
    32    46    47    1
    33    47    48    2
    34    47    49    1
    35    49    50    1
    36    50    51    1
    37    35    36   ar
    38    36    37   ar
    39    37    38    1
    40    37    39   ar
    41     9    10    1
    42    11    10    1
    43    11    12    1
    44    12    13   am
    45    13    14    2
    46    13    15   am
    47    15    52    1
    48    52    53    1
    49    53    54   ar
    50    54    55   ar
    51    55    56   ar
    52    56    57   ar
    53    57    58   ar
    54    12     1    1
    55    58    53   ar
    56    11     5    1
    57    27    21   ar
    58    39    30   ar
    59    39    34   ar
    60    25    28    1
    61    42    43    1
    62    44    45    1
    63    15    16    1
@<TRIPOS>MOLECULE
*****
 58 63 0 0 0
SMALL
GASTEIGER

@<TRIPOS>ATOM
      1 N          65.3645   89.3893   14.6553 N.3     1  UNL1       -0.1862
      2 C          65.5576   88.1468   15.4730 C.3     1  UNL1        0.1775
      3 C          64.8325   86.8863   15.1047 C.2     1  UNL1        0.2452
      4 O          65.0256   85.6437   15.9224 O.2     1  UNL1       -0.2732
      5 N          63.9144   86.8685   13.9186 N.am    1  UNL1       -0.2541
      6 C          63.1894   85.6081   13.5503 C.3     1  UNL1        0.1577
      7 C          62.2713   85.5903   12.3643 C.2     1  UNL1        0.2445
      8 O          61.5462   84.3299   11.9959 O.2     1  UNL1       -0.2731
      9 N          62.0782   86.8329   11.5465 N.am    1  UNL1       -0.2705
     10 C          62.8032   88.0933   11.9148 C.3     1  UNL1        0.1359
     11 C          63.7214   88.1111   13.1009 C.3     1  UNL1        0.1908
     12 N          64.4464   89.3715   13.4693 N.am    1  UNL1       -0.1863
     13 C          64.2533   90.6141   12.6515 C.2     1  UNL1        0.3191
     14 O          63.3352   90.5963   11.4655 O.2     1  UNL1       -0.2512
     15 N          64.9784   91.8746   13.0198 N.am    1  UNL1       -0.2836
     16 H          65.5810   91.8862   13.7983 H       1  UNL1        0.1513
     17 C          66.0896   90.6497   15.0236 C.3     1  UNL1        0.1188
     18 C          68.1032   92.2570   14.6889 C.2     1  UNL1       -0.0034
     19 C          67.4457   90.9305   14.4475 C.2     1  UNL1       -0.0071
     20 C          63.3824   84.3655   14.3680 C.3     1  UNL1        0.0556
     21 C          63.1762   83.0173   13.7437 C.ar    1  UNL1       -0.0198
     22 C          64.0136   82.5973   12.5722 C.ar    1  UNL1       -0.0011
     23 C          63.8074   81.2491   11.9479 C.ar    1  UNL1        0.0363
     24 C          62.7639   80.3208   12.4950 C.ar    1  UNL1        0.1337
     25 O          62.5578   78.9726   11.8707 O.3     1  UNL1       -0.5055
     26 C          61.9265   80.7408   13.6666 C.ar    1  UNL1        0.0363
     27 C          62.1327   82.0890   14.2909 C.ar    1  UNL1       -0.0011
     28 H          63.0808   78.7103   11.1389 H       1  UNL1        0.2922
     29 C          61.1601   86.8151   10.3605 C.3     1  UNL1        0.1217
     30 C          60.5623   88.0949    9.8554 C.ar    1  UNL1        0.0135
     31 C          60.3802   89.2565   10.7868 C.ar    1  UNL1       -0.0012
     32 C          59.7825   90.5362   10.2818 C.ar    1  UNL1       -0.0002
     33 C          59.3668   90.6542    8.8454 C.ar    1  UNL1        0.0016
     34 C          59.5489   89.4926    7.9140 C.ar    1  UNL1        0.0214
     35 C          59.2359   89.3151    6.4578 C.ar    1  UNL1        0.0731
     36 C          59.6402   87.9257    6.0629 C.ar    1  UNL1        0.0805
     37 N          60.2031   87.2445    7.2749 N.ar    1  UNL1       -0.3241
     38 C          60.7299   85.8413    7.3328 C.3     1  UNL1        0.1305
     39 C          60.1466   88.2129    8.4190 C.ar    1  UNL1        0.0577
     40 C          58.6257   90.3460    5.5551 C.2     1  UNL1        0.2603
     41 O          57.1376   90.5323    5.5274 O.2     1  UNL1       -0.2688
     42 N          59.5037   91.1907    4.6800 N.am    1  UNL1       -0.2457
     43 H          60.4804   91.0684    4.6982 H       1  UNL1        0.1693
     44 N          58.8936   92.2216    3.7773 N.3     1  UNL1       -0.2193
     45 H          58.2825   92.7964    4.3574 H       1  UNL1        0.1456
     46 C          59.7745   93.1632    3.0109 C.3     1  UNL1        0.1974
     47 C          60.2499   92.7948    1.6368 C.2     1  UNL1        0.3349
     48 O          59.3122   92.8853    0.4694 O.2     1  UNL1       -0.2485
     49 O          61.6629   92.3358    1.4299 O.3     1  UNL1       -0.4475
     50 C          62.6430   92.3910    2.5640 C.3     1  UNL1        0.2086
     51 C          63.1683   91.1205    3.1639 C.3     1  UNL1        0.0513
     52 C          64.7853   93.1171   12.2022 C.3     1  UNL1        0.1177
     53 C          65.8309   93.5320   11.2099 C.ar    1  UNL1       -0.0025
     54 C          65.9384   94.9679   10.7897 C.ar    1  UNL1       -0.0026
     55 C          66.9840   95.3827    9.7974 C.ar    1  UNL1       -0.0003
     56 C          67.9222   94.3617    9.2253 C.ar    1  UNL1       -0.0000
     57 C          67.8147   92.9257    9.6455 C.ar    1  UNL1       -0.0003
     58 C          66.7691   92.5108   10.6378 C.ar    1  UNL1       -0.0026
@<TRIPOS>BOND
     1    18    19    2
     2    19    17    1
     3    17     1    1
     4     1     2    1
     5     2     3    1
     6     3     4    2
     7     3     5   am
     8     5     6    1
     9     6    20    1
    10    20    21    1
    11    21    22   ar
    12    22    23   ar
    13    23    24   ar
    14    24    25    1
    15    24    26   ar
    16    26    27   ar
    17     6     7    1
    18     7     8    2
    19     7     9   am
    20     9    29    1
    21    29    30    1
    22    30    31   ar
    23    31    32   ar
    24    32    33   ar
    25    33    34   ar
    26    34    35   ar
    27    35    40    1
    28    40    41    2
    29    40    42   am
    30    42    44    1
    31    44    46    1
    32    46    47    1
    33    47    48    2
    34    47    49    1
    35    49    50    1
    36    50    51    1
    37    35    36   ar
    38    36    37   ar
    39    37    38    1
    40    37    39   ar
    41     9    10    1
    42    11    10    1
    43    11    12    1
    44    12    13   am
    45    13    14    2
    46    13    15   am
    47    15    52    1
    48    52    53    1
    49    53    54   ar
    50    54    55   ar
    51    55    56   ar
    52    56    57   ar
    53    57    58   ar
    54    12     1    1
    55    58    53   ar
    56    11     5    1
    57    27    21   ar
    58    39    30   ar
    59    39    34   ar
    60    25    28    1
    61    42    43    1
    62    44    45    1
    63    15    16    1
@<TRIPOS>MOLECULE
*****
 58 63 0 0 0
SMALL
GASTEIGER

@<TRIPOS>ATOM
      1 N          62.7352   83.9218    9.5427 N.3     1  UNL1       -0.1862
      2 C          62.0179   83.9684    8.2262 C.3     1  UNL1        0.1775
      3 C          61.2905   85.2132    7.8121 C.2     1  UNL1        0.2452
      4 O          60.5732   85.2597    6.4955 O.2     1  UNL1       -0.2732
      5 N          61.2804   86.4113    8.7145 N.am    1  UNL1       -0.2541
      6 C          60.5530   87.6560    8.3004 C.3     1  UNL1        0.1577
      7 C          60.5428   88.8541    9.2028 C.2     1  UNL1        0.2445
      8 O          59.8154   90.0989    8.7887 O.2     1  UNL1       -0.2731
      9 N          61.2602   88.8076   10.5194 N.am    1  UNL1       -0.2705
     10 C          61.9876   87.5628   10.9335 C.3     1  UNL1        0.1359
     11 C          61.9977   86.3647   10.0310 C.3     1  UNL1        0.1908
     12 N          62.7251   85.1199   10.4451 N.am    1  UNL1       -0.1863
     13 C          63.4425   85.0734   11.7617 C.2     1  UNL1        0.3191
     14 O          63.4323   86.2715   12.6641 O.2     1  UNL1       -0.2512
     15 N          64.1699   83.8286   12.1758 N.am    1  UNL1       -0.2836
     16 H          64.1765   83.0423   11.5835 H       1  UNL1        0.1513
     17 C          63.4627   82.6771    9.9568 C.3     1  UNL1        0.1188
     18 C          62.7100   81.0373   11.8261 C.2     1  UNL1       -0.0034
     19 C          62.6906   81.4658   10.3888 C.2     1  UNL1       -0.0071
     20 C          59.8357   87.7026    6.9839 C.3     1  UNL1        0.0556
     21 C          59.6079   89.0181    6.3000 C.ar    1  UNL1       -0.0198
     22 C          60.7609   89.7509    5.6806 C.ar    1  UNL1       -0.0011
     23 C          60.5332   91.0663    4.9967 C.ar    1  UNL1        0.0363
     24 C          59.1525   91.6490    4.9322 C.ar    1  UNL1        0.1337
     25 O          58.9248   92.9645    4.2484 O.3     1  UNL1       -0.5055
     26 C          57.9995   90.9163    5.5517 C.ar    1  UNL1        0.0363
     27 C          58.2272   89.6008    6.2356 C.ar    1  UNL1       -0.0011
     28 H          59.6450   93.4222    3.8614 H       1  UNL1        0.2922
     29 C          61.2501   90.0057   11.4218 C.3     1  UNL1        0.1217
     30 C          62.4777   90.8580   11.5507 C.ar    1  UNL1        0.0135
     31 C          63.0027   91.6021   10.3587 C.ar    1  UNL1       -0.0012
     32 C          64.2302   92.4543   10.4876 C.ar    1  UNL1       -0.0002
     33 C          64.9329   92.5625   11.8084 C.ar    1  UNL1        0.0016
     34 C          64.4080   91.8184   13.0003 C.ar    1  UNL1        0.0214
     35 C          64.8849   91.7325   14.4199 C.ar    1  UNL1        0.0731
     36 C          63.9520   90.8272   15.1683 C.ar    1  UNL1        0.0805
     37 N          62.8986   90.3536   14.2114 N.ar    1  UNL1       -0.3241
     38 C          61.7628   89.4296   14.5371 C.3     1  UNL1        0.1305
     39 C          63.1804   90.9661   12.8715 C.ar    1  UNL1        0.0577
     40 C          66.0842   92.4297   14.9907 C.2     1  UNL1        0.2603
     41 O          66.2902   93.8942   14.7402 O.2     1  UNL1       -0.2688
     42 N          67.0774   91.6623   15.8121 N.am    1  UNL1       -0.2457
     43 H          66.9421   90.7011   15.9765 H       1  UNL1        0.1693
     44 N          68.2766   92.3593   16.3830 N.3     1  UNL1       -0.2193
     45 H          68.7739   91.6727   16.9502 H       1  UNL1        0.1456
     46 C          69.2898   92.9800   15.4675 C.3     1  UNL1        0.1974
     47 C          69.5357   92.3897   14.1106 C.2     1  UNL1        0.3349
     48 O          70.8962   91.8675   13.7552 O.2     1  UNL1       -0.2485
     49 O          68.4210   92.3216   13.1091 O.3     1  UNL1       -0.4475
     50 C          68.5939   91.5296   11.8471 C.3     1  UNL1        0.2086
     51 C          68.1389   92.0989   10.5361 C.3     1  UNL1        0.0513
     52 C          64.8872   83.7820   13.4923 C.3     1  UNL1        0.1177
     53 C          64.3008   84.4677   14.6907 C.ar    1  UNL1       -0.0025
     54 C          64.8727   85.7713   15.1634 C.ar    1  UNL1       -0.0026
     55 C          64.2863   86.4570   16.3617 C.ar    1  UNL1       -0.0003
     56 C          63.1280   85.8391   17.0873 C.ar    1  UNL1       -0.0000
     57 C          62.5560   84.5354   16.6146 C.ar    1  UNL1       -0.0003
     58 C          63.1424   83.8497   15.4162 C.ar    1  UNL1       -0.0026
@<TRIPOS>BOND
     1    18    19    2
     2    19    17    1
     3    17     1    1
     4     1     2    1
     5     2     3    1
     6     3     4    2
     7     3     5   am
     8     5     6    1
     9     6    20    1
    10    20    21    1
    11    21    22   ar
    12    22    23   ar
    13    23    24   ar
    14    24    25    1
    15    24    26   ar
    16    26    27   ar
    17     6     7    1
    18     7     8    2
    19     7     9   am
    20     9    29    1
    21    29    30    1
    22    30    31   ar
    23    31    32   ar
    24    32    33   ar
    25    33    34   ar
    26    34    35   ar
    27    35    40    1
    28    40    41    2
    29    40    42   am
    30    42    44    1
    31    44    46    1
    32    46    47    1
    33    47    48    2
    34    47    49    1
    35    49    50    1
    36    50    51    1
    37    35    36   ar
    38    36    37   ar
    39    37    38    1
    40    37    39   ar
    41     9    10    1
    42    11    10    1
    43    11    12    1
    44    12    13   am
    45    13    14    2
    46    13    15   am
    47    15    52    1
    48    52    53    1
    49    53    54   ar
    50    54    55   ar
    51    55    56   ar
    52    56    57   ar
    53    57    58   ar
    54    12     1    1
    55    58    53   ar
    56    11     5    1
    57    27    21   ar
    58    39    30   ar
    59    39    34   ar
    60    25    28    1
    61    42    43    1
    62    44    45    1
    63    15    16    1
