@<TRIPOS>MOLECULE
*****
 27 30 0 0 0
SMALL
GASTEIGER

@<TRIPOS>ATOM
      1 C          63.2449   84.2547   14.0561 C.ar    1  UNL1        0.0070
      2 C          64.0534   84.8067   15.1925 C.ar    1  UNL1       -0.0017
      3 C          64.4067   86.2641   15.2232 C.ar    1  UNL1       -0.0002
      4 C          63.9514   87.1696   14.1174 C.ar    1  UNL1        0.0001
      5 C          64.3046   88.6272   14.1481 C.ar    1  UNL1        0.0042
      6 C          63.8493   89.5327   13.0423 C.ar    1  UNL1        0.0510
      7 C          63.0408   88.9806   11.9057 C.ar    1  UNL1        0.0018
      8 C          62.6876   87.5231   11.8751 C.ar    1  UNL1       -0.0025
      9 C          63.1429   86.6176   12.9809 C.ar    1  UNL1       -0.0005
     10 C          62.7896   85.1602   12.9503 C.ar    1  UNL1       -0.0017
     11 C          62.7349   90.1075   10.9642 C.3     1  UNL1        0.1167
     12 N          63.3544   91.3560   11.5188 N.am    1  UNL1       -0.2969
     13 C          64.0431   91.0007   12.8031 C.2     1  UNL1        0.2458
     14 O          64.7939   91.9473   13.6921 O.2     1  UNL1       -0.2701
     15 H          63.3157   92.2514   11.1114 H       1  UNL1        0.1501
     16 C          62.8917   82.7972   14.0254 C.3     1  UNL1        0.1410
     17 O          62.3663   82.8949   15.4269 O.3     1  UNL1       -0.3771
     18 H          63.1094   82.9635   16.0467 H       1  UNL1        0.2112
     19 C          63.4170   82.6994   12.6238 C.ar    1  UNL1        0.0825
     20 C          64.8202   82.9977   12.1853 C.ar    1  UNL1        0.1157
     21 N          64.9018   82.7688   10.7051 N.ar    1  UNL1       -0.2228
     22 C          63.5491   82.3291   10.2287 C.ar    1  UNL1        0.1749
     23 N          62.6315   82.2862   11.4145 N.ar    1  UNL1       -0.3361
     24 H          61.6806   82.0315   11.4015 H       1  UNL1        0.1673
     25 C          63.6194   80.3087   13.8584 C.3     1  UNL1        0.0031
     26 C          62.5385   81.3397   13.9946 C.3     1  UNL1        0.0340
     27 C          61.1042   80.9132   14.1001 C.3     1  UNL1        0.0031
@<TRIPOS>BOND
     1    25    26    1
     2    26    27    1
     3    26    16    1
     4    16    17    1
     5    16     1    1
     6     1     2   ar
     7     2     3   ar
     8     3     4   ar
     9     4     5   ar
    10     5     6   ar
    11     6     7   ar
    12     7     8   ar
    13     8     9   ar
    14     9    10   ar
    15     7    11    1
    16    11    12    1
    17    12    13   am
    18    13    14    2
    19    16    19    1
    20    19    20   ar
    21    20    21   ar
    22    21    22   ar
    23    22    23   ar
    24    10     1   ar
    25    23    19   ar
    26     9     4   ar
    27    13     6    1
    28    17    18    1
    29    12    15    1
    30    23    24    1
@<TRIPOS>MOLECULE
*****
 27 30 0 0 0
SMALL
GASTEIGER

@<TRIPOS>ATOM
      1 C          62.5296   89.4280   10.7420 C.ar    1  UNL1        0.0070
      2 C          62.9232   90.5562    9.8353 C.ar    1  UNL1       -0.0017
      3 C          63.8199   91.6470   10.3413 C.ar    1  UNL1       -0.0002
      4 C          64.3230   91.6095   11.7539 C.ar    1  UNL1        0.0001
      5 C          65.2198   92.7004   12.2599 C.ar    1  UNL1        0.0042
      6 C          65.7228   92.6630   13.6725 C.ar    1  UNL1        0.0510
      7 C          65.3291   91.5346   14.5792 C.ar    1  UNL1        0.0018
      8 C          64.4324   90.4439   14.0732 C.ar    1  UNL1       -0.0025
      9 C          63.9293   90.4813   12.6606 C.ar    1  UNL1       -0.0005
     10 C          63.0326   89.3905   12.1546 C.ar    1  UNL1       -0.0017
     11 C          65.9761   91.7644   15.9128 C.3     1  UNL1        0.1167
     12 N          66.7697   93.0347   15.8304 N.am    1  UNL1       -0.2969
     13 C          66.6131   93.5900   14.4458 C.2     1  UNL1        0.2458
     14 O          67.2372   94.8509   13.9258 O.2     1  UNL1       -0.2701
     15 H          67.3001   93.4338   16.5574 H       1  UNL1        0.1501
     16 C          61.6328   88.3371   10.2361 C.3     1  UNL1        0.1410
     17 O          62.7779   87.7548    9.4618 O.3     1  UNL1       -0.3771
     18 H          62.9620   88.3115    8.6891 H       1  UNL1        0.2112
     19 C          60.4877   88.9194   11.0103 C.ar    1  UNL1        0.0825
     20 C          59.9173   90.2962   10.8395 C.ar    1  UNL1        0.1157
     21 N          58.7889   90.4549   11.8151 N.ar    1  UNL1       -0.2228
     22 C          58.6619   89.1761   12.5888 C.ar    1  UNL1        0.1749
     23 N          59.7117   88.2272   12.0915 N.ar    1  UNL1       -0.3361
     24 H          59.8647   87.3109   12.4175 H       1  UNL1        0.1673
     25 C          60.9925   85.8217   10.1234 C.3     1  UNL1        0.0031
     26 C          60.7360   87.2463    9.7302 C.3     1  UNL1        0.0340
     27 C          59.5827   87.5802    8.8310 C.3     1  UNL1        0.0031
@<TRIPOS>BOND
     1    25    26    1
     2    26    27    1
     3    26    16    1
     4    16    17    1
     5    16     1    1
     6     1     2   ar
     7     2     3   ar
     8     3     4   ar
     9     4     5   ar
    10     5     6   ar
    11     6     7   ar
    12     7     8   ar
    13     8     9   ar
    14     9    10   ar
    15     7    11    1
    16    11    12    1
    17    12    13   am
    18    13    14    2
    19    16    19    1
    20    19    20   ar
    21    20    21   ar
    22    21    22   ar
    23    22    23   ar
    24    10     1   ar
    25    23    19   ar
    26     9     4   ar
    27    13     6    1
    28    17    18    1
    29    12    15    1
    30    23    24    1
@<TRIPOS>MOLECULE
*****
 27 30 0 0 0
SMALL
GASTEIGER

@<TRIPOS>ATOM
      1 C          62.7963   84.5711   13.1826 C.ar    1  UNL1        0.0070
      2 C          62.1987   85.0558   11.8950 C.ar    1  UNL1       -0.0017
      3 C          62.3327   86.4971   11.5018 C.ar    1  UNL1       -0.0002
      4 C          63.0642   87.4537   12.3961 C.ar    1  UNL1        0.0001
      5 C          63.1982   88.8950   12.0028 C.ar    1  UNL1        0.0042
      6 C          63.9298   89.8516   12.8972 C.ar    1  UNL1        0.0510
      7 C          64.5274   89.3667   14.1848 C.ar    1  UNL1        0.0018
      8 C          64.3934   87.9255   14.5780 C.ar    1  UNL1       -0.0025
      9 C          63.6618   86.9689   13.6837 C.ar    1  UNL1       -0.0005
     10 C          63.5278   85.5276   14.0769 C.ar    1  UNL1       -0.0017
     11 C          65.1873   90.5336   14.8578 C.3     1  UNL1        0.1167
     12 N          64.9976   91.7395   13.9862 N.am    1  UNL1       -0.2969
     13 C          64.2204   91.3180   12.7745 C.2     1  UNL1        0.2458
     14 O          63.8065   92.2069   11.6393 O.2     1  UNL1       -0.2701
     15 H          65.3256   92.6482   14.1761 H       1  UNL1        0.1501
     16 C          62.6623   83.1297   13.5758 C.3     1  UNL1        0.1410
     17 O          62.0437   83.5426   14.8784 O.3     1  UNL1       -0.3771
     18 H          62.7295   83.9028   15.4623 H       1  UNL1        0.2112
     19 C          63.2809   82.7169   12.2732 C.ar    1  UNL1        0.0825
     20 C          64.5722   83.2303   11.7084 C.ar    1  UNL1        0.1157
     21 N          64.8062   82.5488   10.3928 N.ar    1  UNL1       -0.2228
     22 C          63.6595   81.6141   10.1445 C.ar    1  UNL1        0.1749
     23 N          62.7168   81.7180   11.3066 N.ar    1  UNL1       -0.3361
     24 H          61.8756   81.2184   11.4158 H       1  UNL1        0.1673
     25 C          61.1689   81.0950   14.1920 C.3     1  UNL1        0.0031
     26 C          62.5284   81.6884   13.9691 C.3     1  UNL1        0.0340
     27 C          63.7540   80.8404   14.1394 C.3     1  UNL1        0.0031
@<TRIPOS>BOND
     1    25    26    1
     2    26    27    1
     3    26    16    1
     4    16    17    1
     5    16     1    1
     6     1     2   ar
     7     2     3   ar
     8     3     4   ar
     9     4     5   ar
    10     5     6   ar
    11     6     7   ar
    12     7     8   ar
    13     8     9   ar
    14     9    10   ar
    15     7    11    1
    16    11    12    1
    17    12    13   am
    18    13    14    2
    19    16    19    1
    20    19    20   ar
    21    20    21   ar
    22    21    22   ar
    23    22    23   ar
    24    10     1   ar
    25    23    19   ar
    26     9     4   ar
    27    13     6    1
    28    17    18    1
    29    12    15    1
    30    23    24    1
@<TRIPOS>MOLECULE
*****
 27 30 0 0 0
SMALL
GASTEIGER

@<TRIPOS>ATOM
      1 C          62.1845   87.2803   10.6218 C.ar    1  UNL1        0.0070
      2 C          62.4116   86.5154    9.3516 C.ar    1  UNL1       -0.0017
      3 C          62.6046   85.0286    9.3958 C.ar    1  UNL1       -0.0002
      4 C          62.5706   84.3066   10.7101 C.ar    1  UNL1        0.0001
      5 C          62.7637   82.8197   10.7543 C.ar    1  UNL1        0.0042
      6 C          62.7297   82.0977   12.0686 C.ar    1  UNL1        0.0510
      7 C          62.5027   82.8626   13.3389 C.ar    1  UNL1        0.0018
      8 C          62.3097   84.3495   13.2947 C.ar    1  UNL1       -0.0025
      9 C          62.3436   85.0715   11.9803 C.ar    1  UNL1       -0.0005
     10 C          62.1506   86.5583   11.9361 C.ar    1  UNL1       -0.0017
     11 C          62.5199   81.8861   14.4773 C.3     1  UNL1        0.1167
     12 N          62.7576   80.5177   13.9107 N.am    1  UNL1       -0.2969
     13 C          62.8872   80.6485   12.4221 C.2     1  UNL1        0.2458
     14 O          63.1315   79.5270   11.4564 O.2     1  UNL1       -0.2701
     15 H          62.8178   79.6807   14.4255 H       1  UNL1        0.1501
     16 C          61.9915   88.7672   10.5776 C.3     1  UNL1        0.1410
     17 O          63.0927   88.9400   11.5813 O.3     1  UNL1       -0.3771
     18 H          62.7771   88.6685   12.4575 H       1  UNL1        0.2112
     19 C          60.8903   88.5944    9.5739 C.ar    1  UNL1        0.0825
     20 C          59.7795   87.5890    9.6480 C.ar    1  UNL1        0.1157
     21 N          58.9092   87.7699    8.4396 N.ar    1  UNL1       -0.2228
     22 C          59.4822   88.8871    7.6188 C.ar    1  UNL1        0.1749
     23 N          60.7065   89.3966    8.3198 N.ar    1  UNL1       -0.3361
     24 H          61.2874   90.1290    8.0110 H       1  UNL1        0.1673
     25 C          60.4819   90.8516   10.9331 C.3     1  UNL1        0.0031
     26 C          61.7984   90.2540   10.5335 C.3     1  UNL1        0.0340
     27 C          62.9219   91.1434   10.0897 C.3     1  UNL1        0.0031
@<TRIPOS>BOND
     1    25    26    1
     2    26    27    1
     3    26    16    1
     4    16    17    1
     5    16     1    1
     6     1     2   ar
     7     2     3   ar
     8     3     4   ar
     9     4     5   ar
    10     5     6   ar
    11     6     7   ar
    12     7     8   ar
    13     8     9   ar
    14     9    10   ar
    15     7    11    1
    16    11    12    1
    17    12    13   am
    18    13    14    2
    19    16    19    1
    20    19    20   ar
    21    20    21   ar
    22    21    22   ar
    23    22    23   ar
    24    10     1   ar
    25    23    19   ar
    26     9     4   ar
    27    13     6    1
    28    17    18    1
    29    12    15    1
    30    23    24    1
@<TRIPOS>MOLECULE
*****
 27 30 0 0 0
SMALL
GASTEIGER

@<TRIPOS>ATOM
      1 C          63.2727   86.9589   12.8371 C.ar    1  UNL1        0.0070
      2 C          63.4662   88.4364   12.6656 C.ar    1  UNL1       -0.0017
      3 C          62.7756   89.1584   11.5468 C.ar    1  UNL1       -0.0002
      4 C          61.8915   88.4029   10.5995 C.ar    1  UNL1        0.0001
      5 C          61.2009   89.1249    9.4806 C.ar    1  UNL1        0.0042
      6 C          60.3168   88.3694    8.5332 C.ar    1  UNL1        0.0510
      7 C          60.1233   86.8917    8.7047 C.ar    1  UNL1        0.0018
      8 C          60.8140   86.1698    9.8235 C.ar    1  UNL1       -0.0025
      9 C          61.6980   86.9253   10.7709 C.ar    1  UNL1       -0.0005
     10 C          62.3886   86.2034   11.8897 C.ar    1  UNL1       -0.0017
     11 C          59.1989   86.4168    7.6231 C.3     1  UNL1        0.1167
     12 N          58.8210   87.6008    6.7832 N.am    1  UNL1       -0.2969
     13 C          59.5119   88.8075    7.3457 C.2     1  UNL1        0.2458
     14 O          59.4150   90.2068    6.8141 O.2     1  UNL1       -0.2701
     15 H          58.2243   87.5880    6.0003 H       1  UNL1        0.1501
     16 C          63.9633   86.2369   13.9559 C.3     1  UNL1        0.1410
     17 O          64.3289   87.5515   14.5788 O.3     1  UNL1       -0.3771
     18 H          65.0404   87.9656   14.0658 H       1  UNL1        0.2112
     19 C          63.5978   84.9222   13.3331 C.ar    1  UNL1        0.0825
     20 C          62.4772   84.0233   13.7647 C.ar    1  UNL1        0.1157
     21 N          62.4755   82.8211   12.8675 N.ar    1  UNL1       -0.2228
     22 C          63.5951   82.9770   11.8815 C.ar    1  UNL1        0.1749
     23 N          64.2887   84.2755   12.1692 N.ar    1  UNL1       -0.3361
     24 H          65.0617   84.6394   11.6800 H       1  UNL1        0.1673
     25 C          64.0004   85.4183   16.4214 C.3     1  UNL1        0.0031
     26 C          64.6539   85.5148   15.0747 C.3     1  UNL1        0.0340
     27 C          65.9981   84.8892   14.8468 C.3     1  UNL1        0.0031
@<TRIPOS>BOND
     1    25    26    1
     2    26    27    1
     3    26    16    1
     4    16    17    1
     5    16     1    1
     6     1     2   ar
     7     2     3   ar
     8     3     4   ar
     9     4     5   ar
    10     5     6   ar
    11     6     7   ar
    12     7     8   ar
    13     8     9   ar
    14     9    10   ar
    15     7    11    1
    16    11    12    1
    17    12    13   am
    18    13    14    2
    19    16    19    1
    20    19    20   ar
    21    20    21   ar
    22    21    22   ar
    23    22    23   ar
    24    10     1   ar
    25    23    19   ar
    26     9     4   ar
    27    13     6    1
    28    17    18    1
    29    12    15    1
    30    23    24    1
@<TRIPOS>MOLECULE
*****
 27 30 0 0 0
SMALL
GASTEIGER

@<TRIPOS>ATOM
      1 C          63.1302   84.8769   15.0727 C.ar    1  UNL1        0.0070
      2 C          62.5892   85.2428   16.4230 C.ar    1  UNL1       -0.0017
      3 C          62.6993   86.6545   16.9177 C.ar    1  UNL1       -0.0002
      4 C          63.3504   87.7004   16.0620 C.ar    1  UNL1        0.0001
      5 C          63.4605   89.1123   16.5567 C.ar    1  UNL1        0.0042
      6 C          64.1116   90.1582   15.7010 C.ar    1  UNL1        0.0510
      7 C          64.6526   89.7922   14.3506 C.ar    1  UNL1        0.0018
      8 C          64.5425   88.3805   13.8560 C.ar    1  UNL1       -0.0025
      9 C          63.8914   87.3346   14.7117 C.ar    1  UNL1       -0.0005
     10 C          63.7813   85.9228   14.2170 C.ar    1  UNL1       -0.0017
     11 C          65.2378   91.0287   13.7352 C.3     1  UNL1        0.1167
     12 N          65.0584   92.1587   14.7051 N.am    1  UNL1       -0.2969
     13 C          64.3624   91.6207   15.9201 C.2     1  UNL1        0.2458
     14 O          63.9837   92.4072   17.1399 O.2     1  UNL1       -0.2701
     15 H          65.3469   93.0900   14.5683 H       1  UNL1        0.1501
     16 C          63.0201   83.4651   14.5780 C.3     1  UNL1        0.1410
     17 O          63.1511   82.9618   15.9849 O.3     1  UNL1       -0.3771
     18 H          64.0707   83.0575   16.2783 H       1  UNL1        0.2112
     19 C          62.8891   83.9683   13.1710 C.ar    1  UNL1        0.0825
     20 C          63.7359   83.5543   12.0041 C.ar    1  UNL1        0.1157
     21 N          63.2585   84.3041   10.7958 N.ar    1  UNL1       -0.2228
     22 C          62.1167   85.1816   11.2160 C.ar    1  UNL1        0.1749
     23 N          61.8884   84.9741   12.6839 N.ar    1  UNL1       -0.3361
     24 H          61.2023   85.4197   13.2315 H       1  UNL1        0.1673
     25 C          64.1489   81.2789   13.7433 C.3     1  UNL1        0.0031
     26 C          62.9100   82.0533   14.0832 C.3     1  UNL1        0.0340
     27 C          61.5610   81.4159   13.9283 C.3     1  UNL1        0.0031
@<TRIPOS>BOND
     1    25    26    1
     2    26    27    1
     3    26    16    1
     4    16    17    1
     5    16     1    1
     6     1     2   ar
     7     2     3   ar
     8     3     4   ar
     9     4     5   ar
    10     5     6   ar
    11     6     7   ar
    12     7     8   ar
    13     8     9   ar
    14     9    10   ar
    15     7    11    1
    16    11    12    1
    17    12    13   am
    18    13    14    2
    19    16    19    1
    20    19    20   ar
    21    20    21   ar
    22    21    22   ar
    23    22    23   ar
    24    10     1   ar
    25    23    19   ar
    26     9     4   ar
    27    13     6    1
    28    17    18    1
    29    12    15    1
    30    23    24    1
@<TRIPOS>MOLECULE
*****
 27 30 0 0 0
SMALL
GASTEIGER

@<TRIPOS>ATOM
      1 C          61.8606   89.6846   10.2788 C.ar    1  UNL1        0.0070
      2 C          62.8381   90.5638    9.5567 C.ar    1  UNL1       -0.0017
      3 C          63.8620   91.3403   10.3304 C.ar    1  UNL1       -0.0002
      4 C          63.9084   91.2376   11.8261 C.ar    1  UNL1        0.0001
      5 C          64.9323   92.0142   12.5998 C.ar    1  UNL1        0.0042
      6 C          64.9787   91.9115   14.0956 C.ar    1  UNL1        0.0510
      7 C          64.0011   91.0323   14.8177 C.ar    1  UNL1        0.0018
      8 C          62.9772   90.2558   14.0440 C.ar    1  UNL1       -0.0025
      9 C          62.9308   90.3585   12.5482 C.ar    1  UNL1       -0.0005
     10 C          61.9069   89.5820   11.7745 C.ar    1  UNL1       -0.0017
     11 C          64.2867   91.1307   16.2869 C.3     1  UNL1        0.1167
     12 N          65.4408   92.0706   16.4729 N.am    1  UNL1       -0.2969
     13 C          65.8684   92.5532   15.1186 C.2     1  UNL1        0.2458
     14 O          66.9891   93.5096   14.8367 O.2     1  UNL1       -0.2701
     15 H          65.8463   92.3260   17.3329 H       1  UNL1        0.1501
     16 C          60.8366   88.9081    9.5051 C.3     1  UNL1        0.1410
     17 O          60.1803   90.1903    9.0867 O.3     1  UNL1       -0.3771
     18 H          59.6983   90.5674    9.8392 H       1  UNL1        0.2112
     19 C          61.4929   87.6258    9.9235 C.ar    1  UNL1        0.0825
     20 C          62.3402   86.7445    9.0544 C.ar    1  UNL1        0.1157
     21 N          62.7882   85.5737    9.8783 N.ar    1  UNL1       -0.2228
     22 C          62.2177   85.7315   11.2566 C.ar    1  UNL1        0.1749
     23 N          61.4172   86.9998   11.2846 N.ar    1  UNL1       -0.3361
     24 H          60.9280   87.3583   12.0601 H       1  UNL1        0.1673
     25 C          59.1906   86.9055    9.3313 C.3     1  UNL1        0.0031
     26 C          59.8127   88.1315    8.7314 C.3     1  UNL1        0.0340
     27 C          59.4109   88.5809    7.3579 C.3     1  UNL1        0.0031
@<TRIPOS>BOND
     1    25    26    1
     2    26    27    1
     3    26    16    1
     4    16    17    1
     5    16     1    1
     6     1     2   ar
     7     2     3   ar
     8     3     4   ar
     9     4     5   ar
    10     5     6   ar
    11     6     7   ar
    12     7     8   ar
    13     8     9   ar
    14     9    10   ar
    15     7    11    1
    16    11    12    1
    17    12    13   am
    18    13    14    2
    19    16    19    1
    20    19    20   ar
    21    20    21   ar
    22    21    22   ar
    23    22    23   ar
    24    10     1   ar
    25    23    19   ar
    26     9     4   ar
    27    13     6    1
    28    17    18    1
    29    12    15    1
    30    23    24    1
@<TRIPOS>MOLECULE
*****
 27 30 0 0 0
SMALL
GASTEIGER

@<TRIPOS>ATOM
      1 C          58.3421   94.4007   -2.0808 C.ar    1  UNL1        0.0070
      2 C          59.4721   94.7024   -3.0198 C.ar    1  UNL1       -0.0017
      3 C          60.8883   94.4508   -2.5943 C.ar    1  UNL1       -0.0002
      4 C          61.1744   93.8975   -1.2297 C.ar    1  UNL1        0.0001
      5 C          62.5907   93.6458   -0.8043 C.ar    1  UNL1        0.0042
      6 C          62.8767   93.0925    0.5603 C.ar    1  UNL1        0.0510
      7 C          61.7466   92.7909    1.4994 C.ar    1  UNL1        0.0018
      8 C          60.3304   93.0425    1.0739 C.ar    1  UNL1       -0.0025
      9 C          60.0443   93.5958   -0.2907 C.ar    1  UNL1       -0.0005
     10 C          58.6281   93.8474   -0.7162 C.ar    1  UNL1       -0.0017
     11 C          62.3321   92.2557    2.7724 C.3     1  UNL1        0.1167
     12 N          63.8241   92.2266    2.6202 N.am    1  UNL1       -0.2969
     13 C          64.1607   92.7438    1.2530 C.2     1  UNL1        0.2458
     14 O          65.5392   92.8871    0.6793 O.2     1  UNL1       -0.2701
     15 H          64.4691   91.9215    3.2985 H       1  UNL1        0.1501
     16 C          56.9258   94.6524   -2.5062 C.3     1  UNL1        0.1410
     17 O          57.0551   96.0871   -2.0882 O.3     1  UNL1       -0.3771
     18 H          57.0437   96.1441   -1.1200 H       1  UNL1        0.2112
     19 C          56.7965   93.2176   -2.9242 C.ar    1  UNL1        0.0825
     20 C          57.5042   92.5677   -4.0761 C.ar    1  UNL1        0.1157
     21 N          57.0819   91.1292   -4.1275 N.ar    1  UNL1       -0.2228
     22 C          56.1132   90.8902   -3.0074 C.ar    1  UNL1        0.1749
     23 N          55.9368   92.1809   -2.2638 N.ar    1  UNL1       -0.3361
     24 H          55.3584   92.3226   -1.4799 H       1  UNL1        0.1673
     25 C          54.4295   95.0404   -1.8999 C.3     1  UNL1        0.0031
     26 C          55.5096   94.9039   -2.9317 C.3     1  UNL1        0.0340
     27 C          55.1735   95.0190   -4.3891 C.3     1  UNL1        0.0031
@<TRIPOS>BOND
     1    25    26    1
     2    26    27    1
     3    26    16    1
     4    16    17    1
     5    16     1    1
     6     1     2   ar
     7     2     3   ar
     8     3     4   ar
     9     4     5   ar
    10     5     6   ar
    11     6     7   ar
    12     7     8   ar
    13     8     9   ar
    14     9    10   ar
    15     7    11    1
    16    11    12    1
    17    12    13   am
    18    13    14    2
    19    16    19    1
    20    19    20   ar
    21    20    21   ar
    22    21    22   ar
    23    22    23   ar
    24    10     1   ar
    25    23    19   ar
    26     9     4   ar
    27    13     6    1
    28    17    18    1
    29    12    15    1
    30    23    24    1
@<TRIPOS>MOLECULE
*****
 27 30 0 0 0
SMALL
GASTEIGER

@<TRIPOS>ATOM
      1 C          62.6196   84.4952   12.3845 C.ar    1  UNL1        0.0070
      2 C          62.0501   84.7182   11.0148 C.ar    1  UNL1       -0.0017
      3 C          62.0519   86.0937   10.4167 C.ar    1  UNL1       -0.0002
      4 C          62.6232   87.2463   11.1881 C.ar    1  UNL1        0.0001
      5 C          62.6249   88.6219   10.5899 C.ar    1  UNL1        0.0042
      6 C          63.1962   89.7745   11.3614 C.ar    1  UNL1        0.0510
      7 C          63.7657   89.5515   12.7311 C.ar    1  UNL1        0.0018
      8 C          63.7639   88.1760   13.3293 C.ar    1  UNL1       -0.0025
      9 C          63.1926   87.0234   12.5578 C.ar    1  UNL1       -0.0005
     10 C          63.1908   85.6478   13.1560 C.ar    1  UNL1       -0.0017
     11 C          64.2563   90.8708   13.2494 C.3     1  UNL1        0.1167
     12 N          63.9901   91.9092   12.2001 N.am    1  UNL1       -0.2969
     13 C          63.3349   91.2316   11.0333 C.2     1  UNL1        0.2458
     14 O          62.8955   91.8946    9.7616 O.2     1  UNL1       -0.2701
     15 H          64.2072   92.8672   12.2658 H       1  UNL1        0.1501
     16 C          62.6178   83.1197   12.9827 C.3     1  UNL1        0.1410
     17 O          62.4395   82.5258   11.6169 O.3     1  UNL1       -0.3771
     18 H          61.5292   82.6736   11.3164 H       1  UNL1        0.2112
     19 C          62.7961   83.7135   14.3486 C.ar    1  UNL1        0.0825
     20 C          61.7082   84.2779   15.2135 C.ar    1  UNL1        0.1157
     21 N          62.3334   84.7604   16.4888 N.ar    1  UNL1       -0.2228
     22 C          63.8076   84.4942   16.4121 C.ar    1  UNL1        0.1749
     23 N          64.0936   83.8472   15.0894 N.ar    1  UNL1       -0.3361
     24 H          64.9776   83.5606   14.7645 H       1  UNL1        0.1673
     25 C          61.3455   81.1674   14.1315 C.3     1  UNL1        0.0031
     26 C          62.6160   81.7442   13.5810 C.3     1  UNL1        0.0340
     27 C          63.8848   80.9454   13.6287 C.3     1  UNL1        0.0031
@<TRIPOS>BOND
     1    25    26    1
     2    26    27    1
     3    26    16    1
     4    16    17    1
     5    16     1    1
     6     1     2   ar
     7     2     3   ar
     8     3     4   ar
     9     4     5   ar
    10     5     6   ar
    11     6     7   ar
    12     7     8   ar
    13     8     9   ar
    14     9    10   ar
    15     7    11    1
    16    11    12    1
    17    12    13   am
    18    13    14    2
    19    16    19    1
    20    19    20   ar
    21    20    21   ar
    22    21    22   ar
    23    22    23   ar
    24    10     1   ar
    25    23    19   ar
    26     9     4   ar
    27    13     6    1
    28    17    18    1
    29    12    15    1
    30    23    24    1
