@<TRIPOS>MOLECULE
*****
 40 44 0 0 0
SMALL
GASTEIGER

@<TRIPOS>ATOM
      1 N          63.5258   85.7597   13.0547 N.am    1  UNL1       -0.2769
      2 C          64.2154   84.4366   13.2085 C.2     1  UNL1        0.2305
      3 O          65.1175   84.1929   14.3818 O.2     1  UNL1       -0.2747
      4 C          64.0029   83.3570   12.1889 C.3     1  UNL1        0.1329
      5 C          64.7664   83.3838   10.8980 C.3     1  UNL1        0.0816
      6 N          64.5538   82.3043    9.8785 N.3     1  UNL1       -0.2968
      7 C          63.5778   81.1981   10.1498 C.3     1  UNL1        0.0726
      8 C          62.8144   81.1713   11.4407 C.3     1  UNL1        0.0620
      9 C          63.0269   82.2508   12.4602 C.3     1  UNL1        0.1649
     10 O          62.0509   81.1445   12.7315 O.3     1  UNL1       -0.4507
     11 C          61.2874   81.1178   14.0225 C.2     1  UNL1        0.3215
     12 O          60.3114   80.0115   14.2938 O.2     1  UNL1       -0.2497
     13 C          61.4999   82.1973   15.0420 C.3     1  UNL1        0.1357
     14 C          62.4759   83.3035   14.7707 C.ar    1  UNL1       -0.0118
     15 C          62.6885   84.3831   15.7903 C.ar    1  UNL1       -0.0039
     16 C          63.6645   85.4893   15.5190 C.ar    1  UNL1       -0.0003
     17 C          64.4279   85.5161   14.2280 C.ar    1  UNL1       -0.0002
     18 C          64.2154   84.4366   13.2085 C.ar    1  UNL1       -0.0012
     19 C          63.2394   83.3303   13.4798 C.ar    1  UNL1        0.0108
     20 H          65.4608   81.8649    9.7215 H       1  UNL1        0.1233
     21 C          62.6237   86.0034   11.8812 C.3     1  UNL1        0.0758
     22 C          61.2651   86.3226   11.3313 C.3     1  UNL1        0.0215
     23 C          62.4198   86.1061   10.3987 C.3     1  UNL1        0.0215
     24 C          63.7383   86.8392   14.0742 C.3     1  UNL1        0.1201
     25 C          63.3049   90.1170   11.8791 C.ar    1  UNL1       -0.0194
     26 C          63.2485   88.6808   12.3081 C.ar    1  UNL1       -0.0067
     27 C          63.7946   88.2755   13.6452 C.ar    1  UNL1        0.0004
     28 C          64.3969   89.3063   14.5531 C.ar    1  UNL1        0.0343
     29 C          64.4533   90.7426   14.1241 C.ar    1  UNL1        0.1381
     30 C          63.9072   91.1479   12.7872 C.ar    1  UNL1        0.0326
     31 C          62.7589   90.5224   10.5422 C.3     1  UNL1        0.0290
     32 C          61.7105   89.6828    9.8744 C.3     1  UNL1        0.0367
     33 C          60.2765   90.1226    9.8878 C.3     1  UNL1        0.1426
     34 C          59.4861   89.5276   12.2901 C.3     1  UNL1        0.1741
     35 O          59.6275   90.5251   11.1788 O.3     1  UNL1       -0.3511
     36 O          65.0556   91.7735   15.0322 O.3     1  UNL1       -0.4728
     37 C          66.5174   92.0959   14.9354 C.3     1  UNL1        0.2373
     38 C          66.9578   93.4975   14.6329 C.3     1  UNL1        0.1894
     39 O          66.1789   94.3356   13.6629 O.3     1  UNL1       -0.3471
     40 C          66.2412   94.0363   12.1944 C.3     1  UNL1        0.1743
@<TRIPOS>BOND
     1    34    35    1
     2    35    33    1
     3    33    32    1
     4    32    31    1
     5    31    25    1
     6    25    26   ar
     7    26    27   ar
     8    27    24    1
     9    24     1    1
    10     1     2   am
    11     2     3    2
    12     4     2    1
    13     4     5    1
    14     5     6    1
    15     6     7    1
    16     7     8    1
    17     9     8    1
    18     9    10    1
    19    10    11    1
    20    11    12    2
    21    11    13    1
    22    13    14    1
    23    14    15   ar
    24    15    16   ar
    25    16    17   ar
    26    17    18   ar
    27    18    19   ar
    28     1    21    1
    29    21    22    1
    30    22    23    1
    31    27    28   ar
    32    28    29   ar
    33    29    36    1
    34    36    37    1
    35    37    38    1
    36    38    39    1
    37    39    40    1
    38    29    30   ar
    39    30    25   ar
    40     9     4    1
    41    19    14   ar
    42    23    21    1
    43    19     9    1
    44     6    20    1
@<TRIPOS>MOLECULE
*****
 40 44 0 0 0
SMALL
GASTEIGER

@<TRIPOS>ATOM
      1 N          63.5071   85.8095   13.0695 N.am    1  UNL1       -0.2769
      2 C          64.1987   84.4876   13.2254 C.2     1  UNL1        0.2305
      3 O          65.0867   84.2407   14.4088 O.2     1  UNL1       -0.2747
      4 C          64.0024   83.4127   12.1977 C.3     1  UNL1        0.1329
      5 C          64.7680   83.4586   10.9086 C.3     1  UNL1        0.0816
      6 N          64.5717   82.3837    9.8810 N.3     1  UNL1       -0.2968
      7 C          63.6098   81.2628   10.1425 C.3     1  UNL1        0.0726
      8 C          62.8442   81.2168   11.4316 C.3     1  UNL1        0.0620
      9 C          63.0406   82.2918   12.4592 C.3     1  UNL1        0.1649
     10 O          62.0787   81.1709   12.7207 O.3     1  UNL1       -0.4507
     11 C          61.3131   81.1249   14.0099 C.2     1  UNL1        0.3215
     12 O          60.3512   80.0040   14.2713 O.2     1  UNL1       -0.2497
     13 C          61.5094   82.1998   15.0374 C.3     1  UNL1        0.1357
     14 C          62.4713   83.3207   14.7759 C.ar    1  UNL1       -0.0118
     15 C          62.6676   84.3957   15.8036 C.ar    1  UNL1       -0.0039
     16 C          63.6295   85.5166   15.5421 C.ar    1  UNL1       -0.0003
     17 C          64.3951   85.5625   14.2529 C.ar    1  UNL1       -0.0002
     18 C          64.1987   84.4876   13.2254 C.ar    1  UNL1       -0.0012
     19 C          63.2369   83.3667   13.4869 C.ar    1  UNL1        0.0108
     20 H          65.4847   81.9574    9.7228 H       1  UNL1        0.1233
     21 C          62.6191   86.0564   11.8860 C.3     1  UNL1        0.0758
     22 C          61.2549   86.3090   11.3157 C.3     1  UNL1        0.0215
     23 C          62.4453   86.2313   10.4064 C.3     1  UNL1        0.0215
     24 C          63.7033   86.8844   14.0971 C.3     1  UNL1        0.1201
     25 C          64.7899   90.7013   14.0729 C.ar    1  UNL1       -0.0194
     26 C          64.6471   89.2710   14.5016 C.ar    1  UNL1       -0.0067
     27 C          63.8462   88.3147   13.6684 C.ar    1  UNL1        0.0004
     28 C          63.1882   88.7888   12.4066 C.ar    1  UNL1        0.0343
     29 C          63.3310   90.2191   11.9779 C.ar    1  UNL1        0.1381
     30 C          64.1319   91.1753   12.8110 C.ar    1  UNL1        0.0326
     31 C          65.5908   91.6576   14.9060 C.3     1  UNL1        0.0290
     32 C          67.0793   91.7343   14.7373 C.3     1  UNL1        0.0367
     33 C          67.6732   91.8579   13.3654 C.3     1  UNL1        0.1426
     34 C          66.9469   92.7148   11.0228 C.3     1  UNL1        0.1741
     35 O          67.2555   92.9833   12.4659 O.3     1  UNL1       -0.3511
     36 O          62.6729   90.6931   10.7160 O.3     1  UNL1       -0.4728
     37 C          61.7905   89.7644    9.9358 C.3     1  UNL1        0.2373
     38 C          60.3113   90.0063    9.8790 C.3     1  UNL1        0.1894
     39 O          59.5781   90.4618   11.1058 O.3     1  UNL1       -0.3471
     40 C          59.4491   89.5452   12.2861 C.3     1  UNL1        0.1743
@<TRIPOS>BOND
     1    34    35    1
     2    35    33    1
     3    33    32    1
     4    32    31    1
     5    31    25    1
     6    25    26   ar
     7    26    27   ar
     8    27    24    1
     9    24     1    1
    10     1     2   am
    11     2     3    2
    12     4     2    1
    13     4     5    1
    14     5     6    1
    15     6     7    1
    16     7     8    1
    17     9     8    1
    18     9    10    1
    19    10    11    1
    20    11    12    2
    21    11    13    1
    22    13    14    1
    23    14    15   ar
    24    15    16   ar
    25    16    17   ar
    26    17    18   ar
    27    18    19   ar
    28     1    21    1
    29    21    22    1
    30    22    23    1
    31    27    28   ar
    32    28    29   ar
    33    29    36    1
    34    36    37    1
    35    37    38    1
    36    38    39    1
    37    39    40    1
    38    29    30   ar
    39    30    25   ar
    40     9     4    1
    41    19    14   ar
    42    23    21    1
    43    19     9    1
    44     6    20    1
@<TRIPOS>MOLECULE
*****
 40 44 0 0 0
SMALL
GASTEIGER

@<TRIPOS>ATOM
      1 N          63.6276   85.8979   13.2634 N.am    1  UNL1       -0.2769
      2 C          64.2888   84.5550   13.3608 C.2     1  UNL1        0.2305
      3 O          65.1793   84.2401   14.5261 O.2     1  UNL1       -0.2747
      4 C          64.0594   83.5269   12.2928 C.3     1  UNL1        0.1329
      5 C          64.8194   83.6040   11.0019 C.3     1  UNL1        0.0816
      6 N          64.5900   82.5760    9.9341 N.3     1  UNL1       -0.2968
      7 C          63.6007   81.4708   10.1571 C.3     1  UNL1        0.0726
      8 C          62.8407   81.3936   11.4480 C.3     1  UNL1        0.0620
      9 C          63.0701   82.4217   12.5159 C.3     1  UNL1        0.1649
     10 O          62.0808   81.3164   12.7389 O.3     1  UNL1       -0.4507
     11 C          61.3208   81.2393   14.0299 C.2     1  UNL1        0.3215
     12 O          60.3315   80.1341   14.2529 O.2     1  UNL1       -0.2497
     13 C          61.5502   82.2674   15.0978 C.3     1  UNL1        0.1357
     14 C          62.5395   83.3726   14.8747 C.ar    1  UNL1       -0.0118
     15 C          62.7689   84.4007   15.9427 C.ar    1  UNL1       -0.0039
     16 C          63.7582   85.5059   15.7197 C.ar    1  UNL1       -0.0003
     17 C          64.5182   85.5830   14.4287 C.ar    1  UNL1       -0.0002
     18 C          64.2888   84.5550   13.3608 C.ar    1  UNL1       -0.0012
     19 C          63.2995   83.4498   13.5838 C.ar    1  UNL1        0.0108
     20 H          65.4908   82.1328    9.7536 H       1  UNL1        0.1233
     21 C          62.7371   86.2127   12.0981 C.3     1  UNL1        0.0758
     22 C          61.4461   86.0175   11.3598 C.3     1  UNL1        0.0215
     23 C          62.4858   86.9531   10.8180 C.3     1  UNL1        0.0215
     24 C          63.8570   86.9259   14.3313 C.3     1  UNL1        0.1201
     25 C          63.5124   90.2842   12.2448 C.ar    1  UNL1       -0.0194
     26 C          63.4855   88.8271   12.5999 C.ar    1  UNL1       -0.0067
     27 C          63.8839   88.3831   13.9762 C.ar    1  UNL1        0.0004
     28 C          64.3092   89.3961   14.9974 C.ar    1  UNL1        0.0343
     29 C          64.3361   90.8532   14.6423 C.ar    1  UNL1        0.1381
     30 C          63.9378   91.2973   13.2661 C.ar    1  UNL1        0.0326
     31 C          63.1140   90.7283   10.8686 C.3     1  UNL1        0.0290
     32 C          63.8147   91.8862   10.2220 C.3     1  UNL1        0.0367
     33 C          65.1803   92.2932   10.6908 C.3     1  UNL1        0.1426
     34 C          66.1354   94.6487   10.1533 C.3     1  UNL1        0.1741
     35 O          65.4412   93.7131   11.0980 O.3     1  UNL1       -0.3511
     36 O          64.7615   91.8663   15.6635 O.3     1  UNL1       -0.4728
     37 C          66.1619   92.4037   15.6488 C.3     1  UNL1        0.2373
     38 C          66.5464   93.4680   14.6642 C.3     1  UNL1        0.1894
     39 O          67.4016   93.1218   13.4814 O.3     1  UNL1       -0.3471
     40 C          67.9771   91.7429   13.3499 C.3     1  UNL1        0.1743
@<TRIPOS>BOND
     1    34    35    1
     2    35    33    1
     3    33    32    1
     4    32    31    1
     5    31    25    1
     6    25    26   ar
     7    26    27   ar
     8    27    24    1
     9    24     1    1
    10     1     2   am
    11     2     3    2
    12     4     2    1
    13     4     5    1
    14     5     6    1
    15     6     7    1
    16     7     8    1
    17     9     8    1
    18     9    10    1
    19    10    11    1
    20    11    12    2
    21    11    13    1
    22    13    14    1
    23    14    15   ar
    24    15    16   ar
    25    16    17   ar
    26    17    18   ar
    27    18    19   ar
    28     1    21    1
    29    21    22    1
    30    22    23    1
    31    27    28   ar
    32    28    29   ar
    33    29    36    1
    34    36    37    1
    35    37    38    1
    36    38    39    1
    37    39    40    1
    38    29    30   ar
    39    30    25   ar
    40     9     4    1
    41    19    14   ar
    42    23    21    1
    43    19     9    1
    44     6    20    1
@<TRIPOS>MOLECULE
*****
 40 44 0 0 0
SMALL
GASTEIGER

@<TRIPOS>ATOM
      1 N          63.4533   85.7144   12.7194 N.am    1  UNL1       -0.2769
      2 C          64.1271   84.4014   12.9874 C.2     1  UNL1        0.2305
      3 O          65.0328   84.2514   14.1736 O.2     1  UNL1       -0.2747
      4 C          63.8952   83.2382   12.0690 C.3     1  UNL1        0.1329
      5 C          64.6325   83.1531   10.7655 C.3     1  UNL1        0.0816
      6 N          64.4005   81.9899    9.8473 N.3     1  UNL1       -0.2968
      7 C          63.4314   80.9119   10.2325 C.3     1  UNL1        0.0726
      8 C          62.6941   80.9969   11.5360 C.3     1  UNL1        0.0620
      9 C          62.9260   82.1601   12.4543 C.3     1  UNL1        0.1649
     10 O          61.9569   81.0820   12.8395 O.3     1  UNL1       -0.4507
     11 C          61.2196   81.1671   14.1431 C.2     1  UNL1        0.3215
     12 O          60.2504   80.0890   14.5284 O.2     1  UNL1       -0.2497
     13 C          61.4515   82.3302   15.0614 C.3     1  UNL1        0.1357
     14 C          62.4207   83.4083   14.6761 C.ar    1  UNL1       -0.0118
     15 C          62.6526   84.5715   15.5945 C.ar    1  UNL1       -0.0039
     16 C          63.6218   85.6496   15.2092 C.ar    1  UNL1       -0.0003
     17 C          64.3591   85.5645   13.9056 C.ar    1  UNL1       -0.0002
     18 C          64.1271   84.4014   12.9874 C.ar    1  UNL1       -0.0012
     19 C          63.1580   83.3233   13.3726 C.ar    1  UNL1        0.0108
     20 H          65.3046   81.5380    9.7105 H       1  UNL1        0.1233
     21 C          62.5476   85.8643   11.5330 C.3     1  UNL1        0.0758
     22 C          62.3564   85.9573   10.0482 C.3     1  UNL1        0.0215
     23 C          61.1702   86.0309   10.9632 C.3     1  UNL1        0.0215
     24 C          63.6852   86.8776   13.6376 C.3     1  UNL1        0.1201
     25 C          62.7353   89.9781   11.3496 C.ar    1  UNL1       -0.0194
     26 C          62.8030   88.5773   11.8818 C.ar    1  UNL1       -0.0067
     27 C          63.6175   88.2784   13.1055 C.ar    1  UNL1        0.0004
     28 C          64.3643   89.3803   13.7969 C.ar    1  UNL1        0.0343
     29 C          64.2966   90.7811   13.2648 C.ar    1  UNL1        0.1381
     30 C          63.4821   91.0800   12.0412 C.ar    1  UNL1        0.0326
     31 C          61.9209   90.2770   10.1260 C.3     1  UNL1        0.0290
     32 C          60.8360   89.3336    9.6983 C.3     1  UNL1        0.0367
     33 C          60.1167   89.5564    8.4010 C.3     1  UNL1        0.1426
     34 C          59.1900   87.1377    8.1997 C.3     1  UNL1        0.1741
     35 O          59.7172   88.3847    7.5540 O.3     1  UNL1       -0.3511
     36 O          65.0434   91.8830   13.9563 O.3     1  UNL1       -0.4728
     37 C          65.4193   91.7421   15.4016 C.3     1  UNL1        0.2373
     38 C          64.4648   92.1832   16.4713 C.3     1  UNL1        0.1894
     39 O          63.2435   91.3654   16.7704 O.3     1  UNL1       -0.3471
     40 C          63.3083   89.8683   16.7030 C.3     1  UNL1        0.1743
@<TRIPOS>BOND
     1    34    35    1
     2    35    33    1
     3    33    32    1
     4    32    31    1
     5    31    25    1
     6    25    26   ar
     7    26    27   ar
     8    27    24    1
     9    24     1    1
    10     1     2   am
    11     2     3    2
    12     4     2    1
    13     4     5    1
    14     5     6    1
    15     6     7    1
    16     7     8    1
    17     9     8    1
    18     9    10    1
    19    10    11    1
    20    11    12    2
    21    11    13    1
    22    13    14    1
    23    14    15   ar
    24    15    16   ar
    25    16    17   ar
    26    17    18   ar
    27    18    19   ar
    28     1    21    1
    29    21    22    1
    30    22    23    1
    31    27    28   ar
    32    28    29   ar
    33    29    36    1
    34    36    37    1
    35    37    38    1
    36    38    39    1
    37    39    40    1
    38    29    30   ar
    39    30    25   ar
    40     9     4    1
    41    19    14   ar
    42    23    21    1
    43    19     9    1
    44     6    20    1
@<TRIPOS>MOLECULE
*****
 40 44 0 0 0
SMALL
GASTEIGER

@<TRIPOS>ATOM
      1 N          62.9299   88.9318   12.6170 N.am    1  UNL1       -0.2769
      2 C          63.0205   90.4259   12.7142 C.2     1  UNL1        0.2305
      3 O          62.2070   91.2880   11.7951 O.2     1  UNL1       -0.2747
      4 C          63.9248   91.0579   13.7306 C.3     1  UNL1        0.1329
      5 C          63.7522   90.7428   15.1869 C.3     1  UNL1        0.0816
      6 N          64.6564   91.3748   16.2032 N.3     1  UNL1       -0.2968
      7 C          65.7333   92.3218   15.7632 C.3     1  UNL1        0.0726
      8 C          65.9059   92.6368   14.3069 C.3     1  UNL1        0.0620
      9 C          65.0017   92.0048   13.2906 C.3     1  UNL1        0.1649
     10 O          66.0785   92.9518   12.8506 O.3     1  UNL1       -0.4507
     11 C          66.2511   93.2668   11.3942 C.2     1  UNL1        0.3215
     12 O          67.3280   94.2138   10.9541 O.2     1  UNL1       -0.2497
     13 C          65.3469   92.6349   10.3779 C.3     1  UNL1        0.1357
     14 C          64.2700   91.6879   10.8179 C.ar    1  UNL1       -0.0118
     15 C          63.3657   91.0559    9.8015 C.ar    1  UNL1       -0.0039
     16 C          62.2889   90.1089   10.2415 C.ar    1  UNL1       -0.0003
     17 C          62.1163   89.7939   11.6979 C.ar    1  UNL1       -0.0002
     18 C          63.0205   90.4259   12.7142 C.ar    1  UNL1       -0.0012
     19 C          64.0974   91.3729   12.2742 C.ar    1  UNL1        0.0108
     20 H          65.1189   90.6133   16.6999 H       1  UNL1        0.1233
     21 C          63.7435   88.0697   13.5361 C.3     1  UNL1        0.0758
     22 C          64.3876   86.7518   13.8500 C.3     1  UNL1        0.0215
     23 C          64.5086   87.8943   14.8143 C.3     1  UNL1        0.0215
     24 C          62.0257   88.2998   11.6006 C.3     1  UNL1        0.1201
     25 C          62.8532   85.2800    9.1621 C.ar    1  UNL1       -0.0194
     26 C          62.5740   86.6695    9.6534 C.ar    1  UNL1       -0.0067
     27 C          62.3049   86.9103   11.1093 C.ar    1  UNL1        0.0004
     28 C          62.3150   85.7617   12.0739 C.ar    1  UNL1        0.0343
     29 C          62.5942   84.3722   11.5826 C.ar    1  UNL1        0.1381
     30 C          62.8632   84.1313   10.1268 C.ar    1  UNL1        0.0326
     31 C          63.1222   85.0392    7.7063 C.3     1  UNL1        0.0290
     32 C          61.9796   84.8355    6.7561 C.3     1  UNL1        0.0367
     33 C          60.5838   85.1917    7.1743 C.3     1  UNL1        0.1426
     34 C          58.8432   86.9735    7.9127 C.3     1  UNL1        0.1741
     35 O          60.2210   86.6238    7.4340 O.3     1  UNL1       -0.3511
     36 O          62.6043   83.2235   12.5473 O.3     1  UNL1       -0.4728
     37 C          63.2250   83.3880   13.9029 C.3     1  UNL1        0.2373
     38 C          62.3528   83.5440   15.1132 C.3     1  UNL1        0.1894
     39 O          61.9265   84.9112   15.5592 O.3     1  UNL1       -0.3471
     40 C          62.5078   85.5086   16.8062 C.3     1  UNL1        0.1743
@<TRIPOS>BOND
     1    34    35    1
     2    35    33    1
     3    33    32    1
     4    32    31    1
     5    31    25    1
     6    25    26   ar
     7    26    27   ar
     8    27    24    1
     9    24     1    1
    10     1     2   am
    11     2     3    2
    12     4     2    1
    13     4     5    1
    14     5     6    1
    15     6     7    1
    16     7     8    1
    17     9     8    1
    18     9    10    1
    19    10    11    1
    20    11    12    2
    21    11    13    1
    22    13    14    1
    23    14    15   ar
    24    15    16   ar
    25    16    17   ar
    26    17    18   ar
    27    18    19   ar
    28     1    21    1
    29    21    22    1
    30    22    23    1
    31    27    28   ar
    32    28    29   ar
    33    29    36    1
    34    36    37    1
    35    37    38    1
    36    38    39    1
    37    39    40    1
    38    29    30   ar
    39    30    25   ar
    40     9     4    1
    41    19    14   ar
    42    23    21    1
    43    19     9    1
    44     6    20    1
@<TRIPOS>MOLECULE
*****
 40 44 0 0 0
SMALL
GASTEIGER

@<TRIPOS>ATOM
      1 N          62.8952   88.9294   12.6070 N.am    1  UNL1       -0.2769
      2 C          62.9817   90.4230   12.7144 C.2     1  UNL1        0.2305
      3 O          62.1600   91.2891   11.8063 O.2     1  UNL1       -0.2747
      4 C          63.8898   91.0506   13.7301 C.3     1  UNL1        0.1329
      5 C          63.7097   90.7451   15.1875 C.3     1  UNL1        0.0816
      6 N          64.6178   91.3727   16.2031 N.3     1  UNL1       -0.2968
      7 C          65.7061   92.3057   15.7612 C.3     1  UNL1        0.0726
      8 C          65.8862   92.6112   14.3038 C.3     1  UNL1        0.0620
      9 C          64.9780   91.9836   13.2882 C.3     1  UNL1        0.1649
     10 O          66.0663   92.9166   12.8463 O.3     1  UNL1       -0.4507
     11 C          66.2463   93.2220   11.3888 C.2     1  UNL1        0.3215
     12 O          67.3346   94.1551   10.9469 O.2     1  UNL1       -0.2497
     13 C          65.3382   92.5945   10.3732 C.3     1  UNL1        0.1357
     14 C          64.2500   91.6615   10.8151 C.ar    1  UNL1       -0.0118
     15 C          63.3419   91.0339    9.7994 C.ar    1  UNL1       -0.0039
     16 C          62.2536   90.1009   10.2413 C.ar    1  UNL1       -0.0003
     17 C          62.0736   89.7954   11.6989 C.ar    1  UNL1       -0.0002
     18 C          62.9817   90.4230   12.7144 C.ar    1  UNL1       -0.0012
     19 C          64.0699   91.3560   12.2725 C.ar    1  UNL1        0.0108
     20 H          65.0707   90.6089   16.7051 H       1  UNL1        0.1233
     21 C          63.7169   88.0633   13.5152 C.3     1  UNL1        0.0758
     22 C          64.5549   87.9020   14.7489 C.3     1  UNL1        0.0215
     23 C          64.3022   86.7245   13.8546 C.3     1  UNL1        0.0215
     24 C          61.9872   88.3018   11.5914 C.3     1  UNL1        0.1201
     25 C          62.5906   84.3809   11.4796 C.ar    1  UNL1       -0.0194
     26 C          62.2943   85.7549   12.0032 C.ar    1  UNL1       -0.0067
     27 C          62.2835   86.9277   11.0679 C.ar    1  UNL1        0.0004
     28 C          62.5689   86.7263    9.6092 C.ar    1  UNL1        0.0343
     29 C          62.8652   85.3522    9.0856 C.ar    1  UNL1        0.1381
     30 C          62.8761   84.1795   10.0208 C.ar    1  UNL1        0.0326
     31 C          62.6015   83.2082   12.4148 C.3     1  UNL1        0.0290
     32 C          63.3733   83.2801   13.6990 C.3     1  UNL1        0.0367
     33 C          62.6458   83.3911   15.0061 C.3     1  UNL1        0.1426
     34 C          62.4178   85.3901   16.6497 C.3     1  UNL1        0.1741
     35 O          61.9951   84.6855   15.3948 O.3     1  UNL1       -0.3511
     36 O          63.1506   85.1508    7.6268 O.3     1  UNL1       -0.4728
     37 C          62.0221   84.9133    6.6676 C.3     1  UNL1        0.2373
     38 C          60.6024   84.9985    7.1440 C.3     1  UNL1        0.1894
     39 O          59.8439   86.2862    7.0147 O.3     1  UNL1       -0.3471
     40 C          59.1139   86.8487    8.1981 C.3     1  UNL1        0.1743
@<TRIPOS>BOND
     1    34    35    1
     2    35    33    1
     3    33    32    1
     4    32    31    1
     5    31    25    1
     6    25    26   ar
     7    26    27   ar
     8    27    24    1
     9    24     1    1
    10     1     2   am
    11     2     3    2
    12     4     2    1
    13     4     5    1
    14     5     6    1
    15     6     7    1
    16     7     8    1
    17     9     8    1
    18     9    10    1
    19    10    11    1
    20    11    12    2
    21    11    13    1
    22    13    14    1
    23    14    15   ar
    24    15    16   ar
    25    16    17   ar
    26    17    18   ar
    27    18    19   ar
    28     1    21    1
    29    21    22    1
    30    22    23    1
    31    27    28   ar
    32    28    29   ar
    33    29    36    1
    34    36    37    1
    35    37    38    1
    36    38    39    1
    37    39    40    1
    38    29    30   ar
    39    30    25   ar
    40     9     4    1
    41    19    14   ar
    42    23    21    1
    43    19     9    1
    44     6    20    1
@<TRIPOS>MOLECULE
*****
 40 44 0 0 0
SMALL
GASTEIGER

@<TRIPOS>ATOM
      1 N          63.5632   85.6470   13.1963 N.am    1  UNL1       -0.2769
      2 C          64.2489   84.3156   13.2813 C.2     1  UNL1        0.2305
      3 O          65.1536   84.0104   14.4381 O.2     1  UNL1       -0.2747
      4 C          64.0300   83.2894   12.2093 C.3     1  UNL1        0.1329
      5 C          64.7993   83.3713   10.9242 C.3     1  UNL1        0.0816
      6 N          64.5802   82.3452    9.8523 N.3     1  UNL1       -0.2968
      7 C          63.5919   81.2372   10.0655 C.3     1  UNL1        0.0726
      8 C          62.8226   81.1552   11.3505 C.3     1  UNL1        0.0620
      9 C          63.0416   82.1814   12.4224 C.3     1  UNL1        0.1649
     10 O          62.0533   81.0733   12.6356 O.3     1  UNL1       -0.4507
     11 C          61.2840   80.9914   13.9207 C.2     1  UNL1        0.3215
     12 O          60.2957   79.8834   14.1339 O.2     1  UNL1       -0.2497
     13 C          61.5030   82.0176   14.9926 C.3     1  UNL1        0.1357
     14 C          62.4913   83.1256   14.7795 C.ar    1  UNL1       -0.0118
     15 C          62.7103   84.1518   15.8515 C.ar    1  UNL1       -0.0039
     16 C          63.6986   85.2599   15.6383 C.ar    1  UNL1       -0.0003
     17 C          64.4680   85.3417   14.3532 C.ar    1  UNL1       -0.0002
     18 C          64.2489   84.3156   13.2813 C.ar    1  UNL1       -0.0012
     19 C          63.2606   83.2075   13.4944 C.ar    1  UNL1        0.0108
     20 H          65.4834   81.9046    9.6775 H       1  UNL1        0.1233
     21 C          62.6585   85.9522   12.0394 C.3     1  UNL1        0.0758
     22 C          62.4564   86.1576   10.5673 C.3     1  UNL1        0.0215
     23 C          61.2938   86.2755   11.5076 C.3     1  UNL1        0.0215
     24 C          63.7822   86.6731   14.2682 C.3     1  UNL1        0.1201
     25 C          64.2116   90.6041   14.6049 C.ar    1  UNL1       -0.0194
     26 C          64.1800   89.1464   14.9573 C.ar    1  UNL1       -0.0067
     27 C          63.8138   88.1308   13.9158 C.ar    1  UNL1        0.0004
     28 C          63.4793   88.5729   12.5221 C.ar    1  UNL1        0.0343
     29 C          63.5109   90.0306   12.1697 C.ar    1  UNL1        0.1381
     30 C          63.8771   91.0462   13.2111 C.ar    1  UNL1        0.0326
     31 C          64.5778   91.6197   15.6463 C.3     1  UNL1        0.0290
     32 C          65.9512   92.2227   15.6555 C.3     1  UNL1        0.0367
     33 C          66.5887   92.6561   14.3687 C.3     1  UNL1        0.1426
     34 C          68.7879   93.2024   15.6394 C.3     1  UNL1        0.1741
     35 O          67.9923   93.1850   14.3679 O.3     1  UNL1       -0.3511
     36 O          63.1763   90.4727   10.7759 O.3     1  UNL1       -0.4728
     37 C          63.5814   91.8379   10.3045 C.3     1  UNL1        0.2373
     38 C          64.9900   92.3130   10.5047 C.3     1  UNL1        0.1894
     39 O          65.2597   93.7608   10.7900 O.3     1  UNL1       -0.3471
     40 C          66.6721   94.2502   10.9145 C.3     1  UNL1        0.1743
@<TRIPOS>BOND
     1    34    35    1
     2    35    33    1
     3    33    32    1
     4    32    31    1
     5    31    25    1
     6    25    26   ar
     7    26    27   ar
     8    27    24    1
     9    24     1    1
    10     1     2   am
    11     2     3    2
    12     4     2    1
    13     4     5    1
    14     5     6    1
    15     6     7    1
    16     7     8    1
    17     9     8    1
    18     9    10    1
    19    10    11    1
    20    11    12    2
    21    11    13    1
    22    13    14    1
    23    14    15   ar
    24    15    16   ar
    25    16    17   ar
    26    17    18   ar
    27    18    19   ar
    28     1    21    1
    29    21    22    1
    30    22    23    1
    31    27    28   ar
    32    28    29   ar
    33    29    36    1
    34    36    37    1
    35    37    38    1
    36    38    39    1
    37    39    40    1
    38    29    30   ar
    39    30    25   ar
    40     9     4    1
    41    19    14   ar
    42    23    21    1
    43    19     9    1
    44     6    20    1
@<TRIPOS>MOLECULE
*****
 40 44 0 0 0
SMALL
GASTEIGER

@<TRIPOS>ATOM
      1 N          62.8773   87.1757   12.5661 N.am    1  UNL1       -0.2769
      2 C          62.1434   85.9166   12.2112 C.2     1  UNL1        0.2305
      3 O          61.1985   85.9022   11.0463 O.2     1  UNL1       -0.2747
      4 C          62.3545   84.6718   13.0211 C.3     1  UNL1        0.1329
      5 C          61.9937   84.6541   14.4770 C.3     1  UNL1        0.0816
      6 N          62.2048   83.4093   15.2869 N.3     1  UNL1       -0.2968
      7 C          62.7767   82.1823   14.6409 C.3     1  UNL1        0.0726
      8 C          63.1375   82.1999   13.1851 C.3     1  UNL1        0.0620
      9 C          62.9264   83.4447   12.3752 C.3     1  UNL1        0.1649
     10 O          63.4983   82.2176   11.7293 O.3     1  UNL1       -0.4507
     11 C          63.8591   82.2353   10.2734 C.2     1  UNL1        0.3215
     12 O          64.4310   81.0082    9.6275 O.2     1  UNL1       -0.2497
     13 C          63.6480   83.4801    9.4635 C.3     1  UNL1        0.1357
     14 C          63.0761   84.7072   10.1094 C.ar    1  UNL1       -0.0118
     15 C          62.8650   85.9520    9.2994 C.ar    1  UNL1       -0.0039
     16 C          62.2931   87.1790    9.9454 C.ar    1  UNL1       -0.0003
     17 C          61.9323   87.1613   11.4013 C.ar    1  UNL1       -0.0002
     18 C          62.1434   85.9166   12.2112 C.ar    1  UNL1       -0.0012
     19 C          62.7153   84.6895   11.5652 C.ar    1  UNL1        0.0108
     20 H          61.2947   83.1461   15.6649 H       1  UNL1        0.1233
     21 C          63.8223   87.1901   13.7310 C.3     1  UNL1        0.0758
     22 C          64.2859   87.8008   15.0202 C.3     1  UNL1        0.0215
     23 C          64.9953   86.6041   14.4594 C.3     1  UNL1        0.0215
     24 C          62.6663   88.4205   11.7562 C.3     1  UNL1        0.1201
     25 C          64.5973   91.8678   11.3856 C.ar    1  UNL1       -0.0194
     26 C          63.8648   90.6082   11.0297 C.ar    1  UNL1       -0.0067
     27 C          63.3989   89.6801   12.1121 C.ar    1  UNL1        0.0004
     28 C          63.6656   90.0116   13.5505 C.ar    1  UNL1        0.0343
     29 C          64.3981   91.2712   13.9065 C.ar    1  UNL1        0.1381
     30 C          64.8640   92.1993   12.8241 C.ar    1  UNL1        0.0326
     31 C          65.0632   92.7958   10.3033 C.3     1  UNL1        0.0290
     32 C          66.0929   93.8438   10.6057 C.3     1  UNL1        0.0367
     33 C          66.9370   94.4068    9.5009 C.3     1  UNL1        0.1426
     34 C          68.7585   92.5599    9.3563 C.3     1  UNL1        0.1741
     35 O          68.3789   94.0108    9.3825 O.3     1  UNL1       -0.3511
     36 O          64.6648   91.6027   15.3449 O.3     1  UNL1       -0.4728
     37 C          65.8576   92.4340   15.7143 C.3     1  UNL1        0.2373
     38 C          67.2379   91.9615   15.3659 C.3     1  UNL1        0.1894
     39 O          67.9884   92.6050   14.2377 O.3     1  UNL1       -0.3471
     40 C          68.4362   91.7799   13.0678 C.3     1  UNL1        0.1743
@<TRIPOS>BOND
     1    34    35    1
     2    35    33    1
     3    33    32    1
     4    32    31    1
     5    31    25    1
     6    25    26   ar
     7    26    27   ar
     8    27    24    1
     9    24     1    1
    10     1     2   am
    11     2     3    2
    12     4     2    1
    13     4     5    1
    14     5     6    1
    15     6     7    1
    16     7     8    1
    17     9     8    1
    18     9    10    1
    19    10    11    1
    20    11    12    2
    21    11    13    1
    22    13    14    1
    23    14    15   ar
    24    15    16   ar
    25    16    17   ar
    26    17    18   ar
    27    18    19   ar
    28     1    21    1
    29    21    22    1
    30    22    23    1
    31    27    28   ar
    32    28    29   ar
    33    29    36    1
    34    36    37    1
    35    37    38    1
    36    38    39    1
    37    39    40    1
    38    29    30   ar
    39    30    25   ar
    40     9     4    1
    41    19    14   ar
    42    23    21    1
    43    19     9    1
    44     6    20    1
@<TRIPOS>MOLECULE
*****
 40 44 0 0 0
SMALL
GASTEIGER

@<TRIPOS>ATOM
      1 N          62.8928   87.1123   12.6041 N.am    1  UNL1       -0.2769
      2 C          62.1762   85.8493   12.2283 C.2     1  UNL1        0.2305
      3 O          61.2437   85.8371   11.0535 O.2     1  UNL1       -0.2747
      4 C          62.3921   84.5983   13.0275 C.3     1  UNL1        0.1329
      5 C          62.0408   84.5697   14.4854 C.3     1  UNL1        0.0816
      6 N          62.2567   83.3188   15.2845 N.3     1  UNL1       -0.2968
      7 C          62.8240   82.0965   14.6256 C.3     1  UNL1        0.0726
      8 C          63.1753   82.1251   13.1676 C.3     1  UNL1        0.0620
      9 C          62.9593   83.3760   12.3686 C.3     1  UNL1        0.1649
     10 O          63.5266   82.1536   11.7097 O.3     1  UNL1       -0.4507
     11 C          63.8779   82.1823   10.2516 C.2     1  UNL1        0.3215
     12 O          64.4451   80.9600    9.5927 O.2     1  UNL1       -0.2497
     13 C          63.6620   83.4332    9.4526 C.3     1  UNL1        0.1357
     14 C          63.0947   84.6555   10.1115 C.ar    1  UNL1       -0.0118
     15 C          62.8788   85.9065    9.3123 C.ar    1  UNL1       -0.0039
     16 C          62.3116   87.1288    9.9712 C.ar    1  UNL1       -0.0003
     17 C          61.9603   87.1002   11.4293 C.ar    1  UNL1       -0.0002
     18 C          62.1762   85.8493   12.2283 C.ar    1  UNL1       -0.0012
     19 C          62.7434   84.6269   11.5694 C.ar    1  UNL1        0.0108
     20 H          61.3490   83.0530   15.6664 H       1  UNL1        0.1233
     21 C          63.8253   87.1244   13.7790 C.3     1  UNL1        0.0758
     22 C          65.0315   86.5807   14.4858 C.3     1  UNL1        0.0215
     23 C          64.2343   87.6890   15.1071 C.3     1  UNL1        0.0215
     24 C          62.6769   88.3632   11.8050 C.3     1  UNL1        0.1201
     25 C          64.5822   91.1399   13.9051 C.ar    1  UNL1       -0.0194
     26 C          63.8206   89.8928   13.5665 C.ar    1  UNL1       -0.0067
     27 C          63.4386   89.6103   12.1437 C.ar    1  UNL1        0.0004
     28 C          63.8183   90.5749   11.0595 C.ar    1  UNL1        0.0343
     29 C          64.5799   91.8220   11.3982 C.ar    1  UNL1        0.1381
     30 C          64.9619   92.1045   12.8209 C.ar    1  UNL1        0.0326
     31 C          64.9642   91.4224   15.3279 C.3     1  UNL1        0.0290
     32 C          65.9872   92.4756   15.6348 C.3     1  UNL1        0.0367
     33 C          67.4487   92.1474   15.5551 C.3     1  UNL1        0.1426
     34 C          69.1627   94.0678   15.9074 C.3     1  UNL1        0.1741
     35 O          68.4124   93.1483   14.9900 O.3     1  UNL1       -0.3511
     36 O          64.9596   92.7866   10.3139 O.3     1  UNL1       -0.4728
     37 C          66.1147   93.7225   10.5135 C.3     1  UNL1        0.2373
     38 C          66.7810   94.3551    9.3278 C.3     1  UNL1        0.1894
     39 O          67.9804   93.7038    8.7055 O.3     1  UNL1       -0.3471
     40 C          68.4932   92.4027    9.2478 C.3     1  UNL1        0.1743
@<TRIPOS>BOND
     1    34    35    1
     2    35    33    1
     3    33    32    1
     4    32    31    1
     5    31    25    1
     6    25    26   ar
     7    26    27   ar
     8    27    24    1
     9    24     1    1
    10     1     2   am
    11     2     3    2
    12     4     2    1
    13     4     5    1
    14     5     6    1
    15     6     7    1
    16     7     8    1
    17     9     8    1
    18     9    10    1
    19    10    11    1
    20    11    12    2
    21    11    13    1
    22    13    14    1
    23    14    15   ar
    24    15    16   ar
    25    16    17   ar
    26    17    18   ar
    27    18    19   ar
    28     1    21    1
    29    21    22    1
    30    22    23    1
    31    27    28   ar
    32    28    29   ar
    33    29    36    1
    34    36    37    1
    35    37    38    1
    36    38    39    1
    37    39    40    1
    38    29    30   ar
    39    30    25   ar
    40     9     4    1
    41    19    14   ar
    42    23    21    1
    43    19     9    1
    44     6    20    1
