@<TRIPOS>MOLECULE
*****
 36 41 0 0 0
SMALL
GASTEIGER

@<TRIPOS>ATOM
      1 C          62.9095   85.7801   12.7863 C.ar    1  UNL1        0.1239
      2 N          63.7379   86.8648   13.4086 N.ar    1  UNL1       -0.2305
      3 C          63.4848   88.1340   12.6503 C.ar    1  UNL1        0.1014
      4 C          62.5000   87.8337   11.5594 C.ar    1  UNL1        0.1141
      5 C          61.8812   88.6970   10.5003 C.ar    1  UNL1        0.1432
      6 N          62.2367   90.1518   10.4162 N.pl3   1  UNL1       -0.3414
      7 N          60.9067   88.1055    9.5253 N.ar    1  UNL1       -0.2265
      8 C          60.5512   86.6507    9.6093 C.ar    1  UNL1        0.1193
      9 C          61.1701   85.7874   10.6685 C.ar    1  UNL1        0.1020
     10 N          62.1445   86.3789   11.6434 N.ar    1  UNL1       -0.2885
     11 H          62.8763   90.5400   11.0562 H       1  UNL1        0.1438
     12 H          61.8305   90.7185    9.7211 H       1  UNL1        0.1438
     13 C          64.1072   89.4692   12.9332 C.ar    1  UNL1        0.0207
     14 C          64.4321   89.8614   14.3441 C.ar    1  UNL1        0.0016
     15 C          65.0545   91.1965   14.6269 C.ar    1  UNL1        0.0015
     16 C          65.3519   92.1394   13.4989 C.ar    1  UNL1        0.0177
     17 C          65.9743   93.4746   13.7819 C.ar    1  UNL1        0.0030
     18 C          66.2718   94.4175   12.6539 C.ar    1  UNL1        0.0191
     19 C          65.9469   94.0253   11.2429 C.ar    1  UNL1        0.0812
     20 N          65.3245   92.6902   10.9601 N.ar    1  UNL1       -0.2454
     21 C          65.0270   91.7472   12.0881 C.ar    1  UNL1        0.0813
     22 C          64.4047   90.4121   11.8052 C.ar    1  UNL1        0.0206
     23 C          66.2444   94.9682   10.1149 C.ar    1  UNL1        0.0176
     24 C          67.6016   94.9690    9.4762 C.ar    1  UNL1        0.0015
     25 C          67.8991   95.9119    8.3482 C.ar    1  UNL1        0.0000
     26 C          66.8393   96.8541    7.8589 C.ar    1  UNL1        0.0000
     27 C          65.4821   96.8533    8.4977 C.ar    1  UNL1        0.0000
     28 C          65.1847   95.9103    9.6257 C.ar    1  UNL1        0.0015
     29 C          62.7794   82.3226   13.8556 C.3     1  UNL1        0.0168
     30 C          63.4949   83.0709   12.7701 C.3     1  UNL1        0.0089
     31 C          62.8557   84.3479   13.2292 C.3     1  UNL1        0.0573
     32 C          62.1402   83.5996   14.3147 C.3     1  UNL1        0.0089
     33 C          62.7256   80.8905   14.2985 C.3     1  UNL1        0.0722
     34 C          61.9597   78.7549   13.0327 C.3     1  UNL1        0.0897
     35 N          61.6268   79.9947   13.8083 N.3     1  UNL1       -0.2703
     36 C          60.1949   80.3388   14.0940 C.3     1  UNL1        0.0897
@<TRIPOS>BOND
     1    34    35    1
     2    35    36    1
     3    35    33    1
     4    29    33    1
     5    29    30    1
     6    30    31    1
     7    31     1    1
     8     1     2   ar
     9     2     3   ar
    10     3    13    1
    11    13    14   ar
    12    14    15   ar
    13    15    16   ar
    14    16    17   ar
    15    17    18   ar
    16    18    19   ar
    17    19    23    1
    18    23    24   ar
    19    24    25   ar
    20    25    26   ar
    21    26    27   ar
    22    27    28   ar
    23    19    20   ar
    24    20    21   ar
    25    21    22   ar
    26     3     4   ar
    27     4     5   ar
    28     5     6    1
    29     5     7   ar
    30     7     8   ar
    31     8     9   ar
    32     9    10   ar
    33    31    32    1
    34    32    29    1
    35    10     1   ar
    36    22    13   ar
    37    10     4   ar
    38    21    16   ar
    39    28    23   ar
    40     6    11    1
    41     6    12    1
@<TRIPOS>MOLECULE
*****
 36 41 0 0 0
SMALL
GASTEIGER

@<TRIPOS>ATOM
      1 C          64.0456   90.7176   12.0349 C.ar    1  UNL1        0.1239
      2 N          64.5230   89.5251   12.8095 N.ar    1  UNL1       -0.2305
      3 C          63.5051   88.4342   12.6550 C.ar    1  UNL1        0.1014
      4 C          62.3986   88.9525   11.7849 C.ar    1  UNL1        0.1141
      5 C          61.1301   88.3217   11.2920 C.ar    1  UNL1        0.1432
      6 N          60.7961   86.9105   11.6753 N.pl3   1  UNL1       -0.3414
      7 N          60.1955   89.1022   10.4159 N.ar    1  UNL1       -0.2265
      8 C          60.5295   90.5134   10.0327 C.ar    1  UNL1        0.1193
      9 C          61.7981   91.1441   10.5256 C.ar    1  UNL1        0.1020
     10 N          62.7326   90.3637   11.4016 N.ar    1  UNL1       -0.2885
     11 H          61.4095   86.3983   12.2503 H       1  UNL1        0.1438
     12 H          59.9635   86.4965   11.3518 H       1  UNL1        0.1438
     13 C          63.5805   87.0653   13.2637 C.ar    1  UNL1        0.0207
     14 C          63.8972   86.9091   14.7215 C.ar    1  UNL1        0.0016
     15 C          63.9726   85.5403   15.3301 C.ar    1  UNL1        0.0015
     16 C          63.7312   84.3276   14.4810 C.ar    1  UNL1        0.0177
     17 C          63.8065   82.9587   15.0897 C.ar    1  UNL1        0.0030
     18 C          63.5651   81.7459   14.2406 C.ar    1  UNL1        0.0191
     19 C          63.2484   81.9022   12.7827 C.ar    1  UNL1        0.0812
     20 N          63.1730   83.2710   12.1740 N.ar    1  UNL1       -0.2454
     21 C          63.4144   84.4837   13.0232 C.ar    1  UNL1        0.0813
     22 C          63.3391   85.8526   12.4145 C.ar    1  UNL1        0.0206
     23 C          63.0069   80.6894   11.9335 C.ar    1  UNL1        0.0176
     24 C          63.1178   80.7851   10.4406 C.ar    1  UNL1        0.0015
     25 C          62.8764   79.5723    9.5915 C.ar    1  UNL1        0.0000
     26 C          62.5241   78.2640   10.2352 C.ar    1  UNL1        0.0000
     27 C          62.4133   78.1685   11.7280 C.ar    1  UNL1        0.0000
     28 C          62.6547   79.3812   12.5772 C.ar    1  UNL1        0.0015
     29 C          65.7615   93.8934   11.7446 C.3     1  UNL1        0.0168
     30 C          64.9612   93.0312   10.8138 C.3     1  UNL1        0.0089
     31 C          64.7563   92.0331   11.9146 C.3     1  UNL1        0.0573
     32 C          65.5566   92.8952   12.8453 C.3     1  UNL1        0.0089
     33 C          66.4722   95.2088   11.6243 C.3     1  UNL1        0.0722
     34 C          67.2877   96.1826    9.3580 C.3     1  UNL1        0.0897
     35 N          66.2394   96.0803   10.4258 N.3     1  UNL1       -0.2703
     36 C          64.9582   96.8494   10.2952 C.3     1  UNL1        0.0897
@<TRIPOS>BOND
     1    34    35    1
     2    35    36    1
     3    35    33    1
     4    29    33    1
     5    29    30    1
     6    30    31    1
     7    31     1    1
     8     1     2   ar
     9     2     3   ar
    10     3    13    1
    11    13    14   ar
    12    14    15   ar
    13    15    16   ar
    14    16    17   ar
    15    17    18   ar
    16    18    19   ar
    17    19    23    1
    18    23    24   ar
    19    24    25   ar
    20    25    26   ar
    21    26    27   ar
    22    27    28   ar
    23    19    20   ar
    24    20    21   ar
    25    21    22   ar
    26     3     4   ar
    27     4     5   ar
    28     5     6    1
    29     5     7   ar
    30     7     8   ar
    31     8     9   ar
    32     9    10   ar
    33    31    32    1
    34    32    29    1
    35    10     1   ar
    36    22    13   ar
    37    10     4   ar
    38    21    16   ar
    39    28    23   ar
    40     6    11    1
    41     6    12    1
@<TRIPOS>MOLECULE
*****
 36 41 0 0 0
SMALL
GASTEIGER

@<TRIPOS>ATOM
      1 C          64.2902   88.9997   13.8464 C.ar    1  UNL1        0.1239
      2 N          63.4527   89.1490   12.6109 N.ar    1  UNL1       -0.2305
      3 C          62.9358   87.7921   12.2346 C.ar    1  UNL1        0.1014
      4 C          63.4537   86.8042   13.2375 C.ar    1  UNL1        0.1141
      5 C          63.2712   85.3215   13.3723 C.ar    1  UNL1        0.1432
      6 N          62.4342   84.5752   12.3761 N.pl3   1  UNL1       -0.3414
      7 N          63.9259   84.5850   14.5033 N.ar    1  UNL1       -0.2265
      8 C          64.7629   85.3313   15.4994 C.ar    1  UNL1        0.1193
      9 C          64.9454   86.8141   15.3646 C.ar    1  UNL1        0.1020
     10 N          64.2908   87.5505   14.2336 N.ar    1  UNL1       -0.2885
     11 H          62.0045   85.0586   11.6338 H       1  UNL1        0.1438
     12 H          62.3144   83.6020   12.4646 H       1  UNL1        0.1438
     13 C          62.0554   87.4782   11.0613 C.ar    1  UNL1        0.0207
     14 C          61.6134   86.0668   10.8117 C.ar    1  UNL1        0.0016
     15 C          60.7330   85.7529    9.6385 C.ar    1  UNL1        0.0015
     16 C          60.2947   86.8506    8.7149 C.ar    1  UNL1        0.0177
     17 C          59.4144   86.5367    7.5416 C.ar    1  UNL1        0.0030
     18 C          58.9761   87.6343    6.6180 C.ar    1  UNL1        0.0191
     19 C          59.4181   89.0458    6.8676 C.ar    1  UNL1        0.0812
     20 N          60.2985   89.3596    8.0408 N.ar    1  UNL1       -0.2454
     21 C          60.7368   88.2620    8.9645 C.ar    1  UNL1        0.0813
     22 C          61.6171   88.5759   10.1377 C.ar    1  UNL1        0.0206
     23 C          58.9798   90.1434    5.9440 C.ar    1  UNL1        0.0176
     24 C          57.5186   90.4220    5.7504 C.ar    1  UNL1        0.0015
     25 C          57.0803   91.5197    4.8268 C.ar    1  UNL1        0.0000
     26 C          58.1032   92.3387    4.0967 C.ar    1  UNL1        0.0000
     27 C          59.5643   92.0601    4.2903 C.ar    1  UNL1        0.0000
     28 C          60.0026   90.9625    5.2139 C.ar    1  UNL1        0.0015
     29 C          66.0088   91.6691   15.5883 C.3     1  UNL1        0.0168
     30 C          64.5998   91.1553   15.5609 C.3     1  UNL1        0.0089
     31 C          65.0021   90.1054   14.5679 C.3     1  UNL1        0.0573
     32 C          66.4111   90.6192   14.5954 C.3     1  UNL1        0.0089
     33 C          66.7207   92.7748   16.3099 C.3     1  UNL1        0.0722
     34 C          68.8563   94.2396   16.1023 C.3     1  UNL1        0.0897
     35 N          67.5508   93.7596   15.5411 N.3     1  UNL1       -0.2703
     36 C          67.0753   94.2643   14.2109 C.3     1  UNL1        0.0897
@<TRIPOS>BOND
     1    34    35    1
     2    35    36    1
     3    35    33    1
     4    29    33    1
     5    29    30    1
     6    30    31    1
     7    31     1    1
     8     1     2   ar
     9     2     3   ar
    10     3    13    1
    11    13    14   ar
    12    14    15   ar
    13    15    16   ar
    14    16    17   ar
    15    17    18   ar
    16    18    19   ar
    17    19    23    1
    18    23    24   ar
    19    24    25   ar
    20    25    26   ar
    21    26    27   ar
    22    27    28   ar
    23    19    20   ar
    24    20    21   ar
    25    21    22   ar
    26     3     4   ar
    27     4     5   ar
    28     5     6    1
    29     5     7   ar
    30     7     8   ar
    31     8     9   ar
    32     9    10   ar
    33    31    32    1
    34    32    29    1
    35    10     1   ar
    36    22    13   ar
    37    10     4   ar
    38    21    16   ar
    39    28    23   ar
    40     6    11    1
    41     6    12    1
@<TRIPOS>MOLECULE
*****
 36 41 0 0 0
SMALL
GASTEIGER

@<TRIPOS>ATOM
      1 C          63.6819   86.1775   13.8104 C.ar    1  UNL1        0.1239
      2 N          64.3356   87.4392   13.3301 N.ar    1  UNL1       -0.2305
      3 C          64.2576   88.4512   14.4346 C.ar    1  UNL1        0.1014
      4 C          63.5555   87.8149   15.5975 C.ar    1  UNL1        0.1141
      5 C          63.1943   88.3336   16.9578 C.ar    1  UNL1        0.1432
      6 N          63.5501   89.7388   17.3435 N.pl3   1  UNL1       -0.3414
      7 N          62.4772   87.4471   17.9324 N.ar    1  UNL1       -0.2265
      8 C          62.1214   86.0419   17.5467 C.ar    1  UNL1        0.1193
      9 C          62.4827   85.5232   16.1863 C.ar    1  UNL1        0.1020
     10 N          63.1997   86.4097   15.2118 N.ar    1  UNL1       -0.2885
     11 H          64.0207   90.3207   16.7038 H       1  UNL1        0.1438
     12 H          63.3130   90.0792   18.2363 H       1  UNL1        0.1438
     13 C          64.7884   89.8533   14.3848 C.ar    1  UNL1        0.0207
     14 C          65.2409   90.5291   15.6452 C.ar    1  UNL1        0.0016
     15 C          65.7716   91.9311   15.5954 C.ar    1  UNL1        0.0015
     16 C          65.8498   92.6574   14.2853 C.ar    1  UNL1        0.0177
     17 C          66.3806   94.0596   14.2356 C.ar    1  UNL1        0.0030
     18 C          66.4588   94.7858   12.9255 C.ar    1  UNL1        0.0191
     19 C          66.0063   94.1100   11.6651 C.ar    1  UNL1        0.0812
     20 N          65.4755   92.7080   11.7149 N.ar    1  UNL1       -0.2454
     21 C          65.3973   91.9817   13.0250 C.ar    1  UNL1        0.0813
     22 C          64.8666   90.5796   13.0747 C.ar    1  UNL1        0.0206
     23 C          66.0845   94.8363   10.3550 C.ar    1  UNL1        0.0176
     24 C          65.2606   96.0696   10.1308 C.ar    1  UNL1        0.0015
     25 C          65.3388   96.7959    8.8207 C.ar    1  UNL1        0.0000
     26 C          66.2410   96.2889    7.7348 C.ar    1  UNL1        0.0000
     27 C          67.0648   95.0557    7.9590 C.ar    1  UNL1        0.0000
     28 C          66.9866   94.3294    9.2691 C.ar    1  UNL1        0.0015
     29 C          63.3294   83.1095   11.9191 C.3     1  UNL1        0.0168
     30 C          62.5662   84.3982   12.0018 C.3     1  UNL1        0.0089
     31 C          63.5359   84.9067   13.0270 C.3     1  UNL1        0.0573
     32 C          64.2991   83.6181   12.9443 C.3     1  UNL1        0.0089
     33 C          63.1834   81.8387   11.1357 C.3     1  UNL1        0.0722
     34 C          62.4066   80.5966   13.2812 C.3     1  UNL1        0.0897
     35 N          62.7930   80.5689   11.8322 N.3     1  UNL1       -0.2703
     36 C          62.7891   79.2713   11.0796 C.3     1  UNL1        0.0897
@<TRIPOS>BOND
     1    34    35    1
     2    35    36    1
     3    35    33    1
     4    29    33    1
     5    29    30    1
     6    30    31    1
     7    31     1    1
     8     1     2   ar
     9     2     3   ar
    10     3    13    1
    11    13    14   ar
    12    14    15   ar
    13    15    16   ar
    14    16    17   ar
    15    17    18   ar
    16    18    19   ar
    17    19    23    1
    18    23    24   ar
    19    24    25   ar
    20    25    26   ar
    21    26    27   ar
    22    27    28   ar
    23    19    20   ar
    24    20    21   ar
    25    21    22   ar
    26     3     4   ar
    27     4     5   ar
    28     5     6    1
    29     5     7   ar
    30     7     8   ar
    31     8     9   ar
    32     9    10   ar
    33    31    32    1
    34    32    29    1
    35    10     1   ar
    36    22    13   ar
    37    10     4   ar
    38    21    16   ar
    39    28    23   ar
    40     6    11    1
    41     6    12    1
@<TRIPOS>MOLECULE
*****
 36 41 0 0 0
SMALL
GASTEIGER

@<TRIPOS>ATOM
      1 C          60.1631   91.9173    3.6394 C.ar    1  UNL1        0.1239
      2 N          59.1846   92.6965    2.8114 N.ar    1  UNL1       -0.2305
      3 C          59.9413   93.3520    1.6944 C.ar    1  UNL1        0.1014
      4 C          61.3874   92.9780    1.8320 C.ar    1  UNL1        0.1141
      5 C          62.5971   93.3303    1.0180 C.ar    1  UNL1        0.1432
      6 N          62.4599   94.2169   -0.1841 N.pl3   1  UNL1       -0.3414
      7 N          63.9439   92.7959    1.4061 N.ar    1  UNL1       -0.2265
      8 C          64.0810   91.9093    2.6082 C.ar    1  UNL1        0.1193
      9 C          62.8712   91.5570    3.4222 C.ar    1  UNL1        0.1020
     10 N          61.5245   92.0913    3.0341 N.ar    1  UNL1       -0.2885
     11 H          61.5760   94.5677   -0.4388 H       1  UNL1        0.1438
     12 H          63.2539   94.4482   -0.7183 H       1  UNL1        0.1438
     13 C          59.3548   94.2278    0.6270 C.ar    1  UNL1        0.0207
     14 C          59.4041   95.7201    0.7704 C.ar    1  UNL1        0.0016
     15 C          58.8177   96.5958   -0.2969 C.ar    1  UNL1        0.0015
     16 C          58.1819   95.9792   -1.5076 C.ar    1  UNL1        0.0177
     17 C          57.5954   96.8549   -2.5749 C.ar    1  UNL1        0.0030
     18 C          56.9596   96.2383   -3.7855 C.ar    1  UNL1        0.0191
     19 C          56.9103   94.7460   -3.9288 C.ar    1  UNL1        0.0812
     20 N          57.4968   93.8703   -2.8615 N.ar    1  UNL1       -0.2454
     21 C          58.1326   94.4869   -1.6509 C.ar    1  UNL1        0.0813
     22 C          58.7190   93.6112   -0.5836 C.ar    1  UNL1        0.0206
     23 C          56.2745   94.1294   -5.1394 C.ar    1  UNL1        0.0176
     24 C          55.6356   95.0029   -6.1780 C.ar    1  UNL1        0.0015
     25 C          54.9998   94.3863   -7.3887 C.ar    1  UNL1        0.0000
     26 C          55.0030   92.8962   -7.5606 C.ar    1  UNL1        0.0000
     27 C          55.6419   92.0227   -6.5220 C.ar    1  UNL1        0.0000
     28 C          56.2777   92.6393   -5.3114 C.ar    1  UNL1        0.0015
     29 C          59.3768   89.9599    6.5829 C.3     1  UNL1        0.0168
     30 C          58.5735   90.7124    5.5638 C.3     1  UNL1        0.0089
     31 C          59.8374   91.1066    4.8587 C.3     1  UNL1        0.0573
     32 C          60.6406   90.3541    5.8778 C.3     1  UNL1        0.0089
     33 C          59.0511   89.1492    7.8022 C.3     1  UNL1        0.0722
     34 C          60.9558   87.9054    9.0570 C.3     1  UNL1        0.0897
     35 N          59.8103   87.8877    8.0889 N.3     1  UNL1       -0.2703
     36 C          59.4240   86.6084    7.4073 C.3     1  UNL1        0.0897
@<TRIPOS>BOND
     1    34    35    1
     2    35    36    1
     3    35    33    1
     4    29    33    1
     5    29    30    1
     6    30    31    1
     7    31     1    1
     8     1     2   ar
     9     2     3   ar
    10     3    13    1
    11    13    14   ar
    12    14    15   ar
    13    15    16   ar
    14    16    17   ar
    15    17    18   ar
    16    18    19   ar
    17    19    23    1
    18    23    24   ar
    19    24    25   ar
    20    25    26   ar
    21    26    27   ar
    22    27    28   ar
    23    19    20   ar
    24    20    21   ar
    25    21    22   ar
    26     3     4   ar
    27     4     5   ar
    28     5     6    1
    29     5     7   ar
    30     7     8   ar
    31     8     9   ar
    32     9    10   ar
    33    31    32    1
    34    32    29    1
    35    10     1   ar
    36    22    13   ar
    37    10     4   ar
    38    21    16   ar
    39    28    23   ar
    40     6    11    1
    41     6    12    1
@<TRIPOS>MOLECULE
*****
 36 41 0 0 0
SMALL
GASTEIGER

@<TRIPOS>ATOM
      1 C          66.1094   93.1577   12.6184 C.ar    1  UNL1        0.1239
      2 N          65.2000   91.9903   12.8641 N.ar    1  UNL1       -0.2305
      3 C          65.3573   91.5737   14.2964 C.ar    1  UNL1        0.1014
      4 C          66.3639   92.4836   14.9360 C.ar    1  UNL1        0.1141
      5 C          66.9173   92.5472   16.3287 C.ar    1  UNL1        0.1432
      6 N          66.4525   91.5682   17.3658 N.pl3   1  UNL1       -0.3414
      7 N          67.9354   93.5897   16.6844 N.ar    1  UNL1       -0.2265
      8 C          68.4002   94.5687   15.6473 C.ar    1  UNL1        0.1193
      9 C          67.8468   94.5050   14.2545 C.ar    1  UNL1        0.1020
     10 N          66.8287   93.4626   13.8989 N.ar    1  UNL1       -0.2885
     11 H          65.7842   90.8840   17.1324 H       1  UNL1        0.1438
     12 H          66.8156   91.6099   18.2799 H       1  UNL1        0.1438
     13 C          64.6349   90.4453   14.9709 C.ar    1  UNL1        0.0207
     14 C          63.8761   90.6931   16.2408 C.ar    1  UNL1        0.0016
     15 C          63.1537   89.5648   16.9153 C.ar    1  UNL1        0.0015
     16 C          63.1902   88.1885   16.3197 C.ar    1  UNL1        0.0177
     17 C          62.4677   87.0601   16.9942 C.ar    1  UNL1        0.0030
     18 C          62.5042   85.6838   16.3987 C.ar    1  UNL1        0.0191
     19 C          63.2631   85.4360   15.1287 C.ar    1  UNL1        0.0812
     20 N          63.9854   86.5644   14.4543 N.ar    1  UNL1       -0.2454
     21 C          63.9490   87.9407   15.0498 C.ar    1  UNL1        0.0813
     22 C          64.6713   89.0690   14.3754 C.ar    1  UNL1        0.0206
     23 C          63.2995   84.0598   14.5332 C.ar    1  UNL1        0.0176
     24 C          62.2205   83.0712   14.8627 C.ar    1  UNL1        0.0015
     25 C          62.2569   81.6950   14.2672 C.ar    1  UNL1        0.0000
     26 C          63.3724   81.3073   13.3422 C.ar    1  UNL1        0.0000
     27 C          64.4513   82.2958   13.0128 C.ar    1  UNL1        0.0000
     28 C          64.4149   83.6721   13.6083 C.ar    1  UNL1        0.0015
     29 C          66.4996   94.9289    9.4840 C.3     1  UNL1        0.0168
     30 C          66.5002   95.3220   10.9316 C.3     1  UNL1        0.0089
     31 C          66.2710   93.8914   11.3200 C.3     1  UNL1        0.0573
     32 C          66.2704   93.4984    9.8725 C.3     1  UNL1        0.0089
     33 C          66.6613   95.6626    8.1857 C.3     1  UNL1        0.0722
     34 C          64.3732   96.8555    8.4880 C.3     1  UNL1        0.0897
     35 N          65.5061   96.4232    7.6051 N.3     1  UNL1       -0.2703
     36 C          65.4838   96.7516    6.1416 C.3     1  UNL1        0.0897
@<TRIPOS>BOND
     1    34    35    1
     2    35    36    1
     3    35    33    1
     4    29    33    1
     5    29    30    1
     6    30    31    1
     7    31     1    1
     8     1     2   ar
     9     2     3   ar
    10     3    13    1
    11    13    14   ar
    12    14    15   ar
    13    15    16   ar
    14    16    17   ar
    15    17    18   ar
    16    18    19   ar
    17    19    23    1
    18    23    24   ar
    19    24    25   ar
    20    25    26   ar
    21    26    27   ar
    22    27    28   ar
    23    19    20   ar
    24    20    21   ar
    25    21    22   ar
    26     3     4   ar
    27     4     5   ar
    28     5     6    1
    29     5     7   ar
    30     7     8   ar
    31     8     9   ar
    32     9    10   ar
    33    31    32    1
    34    32    29    1
    35    10     1   ar
    36    22    13   ar
    37    10     4   ar
    38    21    16   ar
    39    28    23   ar
    40     6    11    1
    41     6    12    1
@<TRIPOS>MOLECULE
*****
 36 41 0 0 0
SMALL
GASTEIGER

@<TRIPOS>ATOM
      1 C          64.8929   90.1947   13.8779 C.ar    1  UNL1        0.1239
      2 N          64.8055   88.8784   14.5918 N.ar    1  UNL1       -0.2305
      3 C          63.8463   88.0053   13.8384 C.ar    1  UNL1        0.1014
      4 C          63.3409   88.7821   12.6589 C.ar    1  UNL1        0.1141
      5 C          62.3752   88.4320   11.5658 C.ar    1  UNL1        0.1432
      6 N          61.7283   87.0789   11.5414 N.pl3   1  UNL1       -0.3414
      7 N          62.0564   89.4351   10.4970 N.ar    1  UNL1       -0.2265
      8 C          62.7032   90.7882   10.5214 C.ar    1  UNL1        0.1193
      9 C          63.6689   91.1382   11.6146 C.ar    1  UNL1        0.1020
     10 N          63.9877   90.1352   12.6833 N.ar    1  UNL1       -0.2885
     11 H          61.9376   86.4206   12.2429 H       1  UNL1        0.1438
     12 H          61.0945   86.8491   10.8240 H       1  UNL1        0.1438
     13 C          63.4602   86.6019   14.2009 C.ar    1  UNL1        0.0207
     14 C          63.0461   86.2770   15.6055 C.ar    1  UNL1        0.0016
     15 C          62.6600   84.8736   15.9679 C.ar    1  UNL1        0.0015
     16 C          62.6880   83.7951   14.9257 C.ar    1  UNL1        0.0177
     17 C          62.3020   82.3916   15.2882 C.ar    1  UNL1        0.0030
     18 C          62.3300   81.3132   14.2461 C.ar    1  UNL1        0.0191
     19 C          62.7441   81.6382   12.8414 C.ar    1  UNL1        0.0812
     20 N          63.1302   83.0416   12.4790 N.ar    1  UNL1       -0.2454
     21 C          63.1021   84.1200   13.5212 C.ar    1  UNL1        0.0813
     22 C          63.4882   85.5234   13.1587 C.ar    1  UNL1        0.0206
     23 C          62.7721   80.5597   11.7992 C.ar    1  UNL1        0.0176
     24 C          62.5622   79.1282   12.1954 C.ar    1  UNL1        0.0015
     25 C          62.5902   78.0498   11.1533 C.ar    1  UNL1        0.0000
     26 C          62.8282   78.4028    9.7149 C.ar    1  UNL1        0.0000
     27 C          63.0381   79.8342    9.3188 C.ar    1  UNL1        0.0000
     28 C          63.0101   80.9126   10.3609 C.ar    1  UNL1        0.0015
     29 C          66.9315   93.0203   14.8651 C.3     1  UNL1        0.0168
     30 C          65.8046   92.2547   15.4927 C.3     1  UNL1        0.0089
     31 C          65.7373   91.3651   14.2869 C.3     1  UNL1        0.0573
     32 C          66.8642   92.1308   13.6592 C.3     1  UNL1        0.0089
     33 C          67.7759   94.1907   15.2740 C.3     1  UNL1        0.0722
     34 C          70.0503   95.1169   16.1219 C.3     1  UNL1        0.0897
     35 N          69.1151   93.9634   15.9102 N.3     1  UNL1       -0.2703
     36 C          69.5192   92.5826   16.3349 C.3     1  UNL1        0.0897
@<TRIPOS>BOND
     1    34    35    1
     2    35    36    1
     3    35    33    1
     4    29    33    1
     5    29    30    1
     6    30    31    1
     7    31     1    1
     8     1     2   ar
     9     2     3   ar
    10     3    13    1
    11    13    14   ar
    12    14    15   ar
    13    15    16   ar
    14    16    17   ar
    15    17    18   ar
    16    18    19   ar
    17    19    23    1
    18    23    24   ar
    19    24    25   ar
    20    25    26   ar
    21    26    27   ar
    22    27    28   ar
    23    19    20   ar
    24    20    21   ar
    25    21    22   ar
    26     3     4   ar
    27     4     5   ar
    28     5     6    1
    29     5     7   ar
    30     7     8   ar
    31     8     9   ar
    32     9    10   ar
    33    31    32    1
    34    32    29    1
    35    10     1   ar
    36    22    13   ar
    37    10     4   ar
    38    21    16   ar
    39    28    23   ar
    40     6    11    1
    41     6    12    1
@<TRIPOS>MOLECULE
*****
 36 41 0 0 0
SMALL
GASTEIGER

@<TRIPOS>ATOM
      1 C          62.1026   86.2014   10.2641 C.ar    1  UNL1        0.1239
      2 N          61.2748   86.5223    9.0551 N.ar    1  UNL1       -0.2305
      3 C          61.0303   88.0022    9.0402 C.ar    1  UNL1        0.1014
      4 C          61.7072   88.5959   10.2399 C.ar    1  UNL1        0.1141
      5 C          61.8056   90.0062   10.7413 C.ar    1  UNL1        0.1432
      6 N          61.1429   91.1191    9.9848 N.pl3   1  UNL1       -0.3414
      7 N          62.5668   90.3036   11.9992 N.ar    1  UNL1       -0.2265
      8 C          63.2295   89.1907   12.7556 C.ar    1  UNL1        0.1193
      9 C          63.1310   87.7804   12.2542 C.ar    1  UNL1        0.1020
     10 N          62.3699   87.4830   10.9964 N.ar    1  UNL1       -0.2885
     11 H          60.6433   90.9239    9.1593 H       1  UNL1        0.1438
     12 H          61.2075   92.0447   10.3139 H       1  UNL1        0.1438
     13 C          60.2467   88.7560    8.0068 C.ar    1  UNL1        0.0207
     14 C          58.7509   88.6485    7.9740 C.ar    1  UNL1        0.0016
     15 C          57.9673   89.4023    6.9408 C.ar    1  UNL1        0.0015
     16 C          58.6795   90.2636    5.9403 C.ar    1  UNL1        0.0177
     17 C          57.8958   91.0175    4.9070 C.ar    1  UNL1        0.0030
     18 C          58.6080   91.8788    3.9065 C.ar    1  UNL1        0.0191
     19 C          60.1038   91.9863    3.9393 C.ar    1  UNL1        0.0812
     20 N          60.8874   91.2325    4.9726 N.ar    1  UNL1       -0.2454
     21 C          60.1752   90.3711    5.9731 C.ar    1  UNL1        0.0813
     22 C          60.9588   89.6173    7.0064 C.ar    1  UNL1        0.0206
     23 C          60.8160   92.8476    2.9388 C.ar    1  UNL1        0.0176
     24 C          62.2107   92.5011    2.5089 C.ar    1  UNL1        0.0015
     25 C          62.9229   93.3624    1.5084 C.ar    1  UNL1        0.0000
     26 C          62.2403   94.5702    0.9379 C.ar    1  UNL1        0.0000
     27 C          60.8457   94.9166    1.3679 C.ar    1  UNL1        0.0000
     28 C          60.1335   94.0553    2.3683 C.ar    1  UNL1        0.0015
     29 C          63.2540   82.9106   11.2432 C.3     1  UNL1        0.0168
     30 C          62.3832   83.9593   11.8691 C.3     1  UNL1        0.0089
     31 C          62.5796   84.8383   10.6697 C.3     1  UNL1        0.0573
     32 C          63.4504   83.7896   10.0437 C.3     1  UNL1        0.0089
     33 C          63.7310   81.5474   11.6487 C.3     1  UNL1        0.0722
     34 C          62.3832   79.8219   13.0472 C.3     1  UNL1        0.0897
     35 N          63.3348   80.9794   12.9792 N.3     1  UNL1       -0.2703
     36 C          63.8901   81.5688   14.2419 C.3     1  UNL1        0.0897
@<TRIPOS>BOND
     1    34    35    1
     2    35    36    1
     3    35    33    1
     4    29    33    1
     5    29    30    1
     6    30    31    1
     7    31     1    1
     8     1     2   ar
     9     2     3   ar
    10     3    13    1
    11    13    14   ar
    12    14    15   ar
    13    15    16   ar
    14    16    17   ar
    15    17    18   ar
    16    18    19   ar
    17    19    23    1
    18    23    24   ar
    19    24    25   ar
    20    25    26   ar
    21    26    27   ar
    22    27    28   ar
    23    19    20   ar
    24    20    21   ar
    25    21    22   ar
    26     3     4   ar
    27     4     5   ar
    28     5     6    1
    29     5     7   ar
    30     7     8   ar
    31     8     9   ar
    32     9    10   ar
    33    31    32    1
    34    32    29    1
    35    10     1   ar
    36    22    13   ar
    37    10     4   ar
    38    21    16   ar
    39    28    23   ar
    40     6    11    1
    41     6    12    1
