@<TRIPOS>MOLECULE
*****
 15 16 0 0 0
SMALL
GASTEIGER

@<TRIPOS>ATOM
      1 C          63.8821   90.9724   13.0899 C.ar    1  UNL1        0.0519
      2 C          63.1485   90.7258   11.8049 C.ar    1  UNL1        0.0087
      3 C          63.8507   91.4837   10.7176 C.ar    1  UNL1        0.0071
      4 C          65.0182   92.1987   11.3304 C.ar    1  UNL1        0.0310
      5 S          65.0377   91.8827   12.7966 S.2     1  UNL1       -0.0852
      6 C          65.9949   93.0758   10.6045 C.ar    1  UNL1        0.0252
      7 C          67.2262   92.4789    9.9901 C.ar    1  UNL1        0.0036
      8 C          68.2028   93.3560    9.2642 C.ar    1  UNL1        0.0207
      9 C          67.9481   94.8300    9.1528 C.ar    1  UNL1        0.0989
     10 N          66.7168   95.4269    9.7671 N.ar    1  UNL1       -0.2423
     11 C          65.7402   94.5498   10.4930 C.ar    1  UNL1        0.0993
     12 O          63.2418   90.7086   16.9976 O.2     1  UNL1       -0.4087
     13 N          63.6007   91.2731   15.6552 N.2     1  UNL1       -0.0842
     14 C          63.5232   90.4077   14.4324 C.2     1  UNL1        0.1463
     15 H          63.2903   91.2493   17.7614 H       1  UNL1        0.3278
@<TRIPOS>BOND
     1    12    13    1
     2    13    14    2
     3    14     1    1
     4     1     2   ar
     5     2     3   ar
     6     3     4   ar
     7     4     6    1
     8     6     7   ar
     9     7     8   ar
    10     8     9   ar
    11     9    10   ar
    12    10    11   ar
    13     4     5   ar
    14     5     1   ar
    15    11     6   ar
    16    12    15    1
@<TRIPOS>MOLECULE
*****
 15 16 0 0 0
SMALL
GASTEIGER

@<TRIPOS>ATOM
      1 C          64.6027   91.0278   13.7311 C.ar    1  UNL1        0.0519
      2 C          65.9040   91.1573   14.4660 C.ar    1  UNL1        0.0087
      3 C          66.8237   92.0017   13.6347 C.ar    1  UNL1        0.0071
      4 C          66.0910   92.3940   12.3860 C.ar    1  UNL1        0.0310
      5 S          64.7183   91.7922   12.4456 S.2     1  UNL1       -0.0852
      6 C          66.6354   93.2398   11.2732 C.ar    1  UNL1        0.0252
      7 C          67.4575   92.6118   10.1871 C.ar    1  UNL1        0.0036
      8 C          68.0018   93.4575    9.0743 C.ar    1  UNL1        0.0207
      9 C          67.7240   94.9314    9.0476 C.ar    1  UNL1        0.0989
     10 N          66.9019   95.5594   10.1337 N.ar    1  UNL1       -0.2423
     11 C          66.3576   94.7136   11.2465 C.ar    1  UNL1        0.0993
     12 O          61.9392   89.3332   16.1360 O.2     1  UNL1       -0.4087
     13 N          63.1444   90.0935   15.6676 N.2     1  UNL1       -0.0842
     14 C          63.3975   90.2675   14.1994 C.2     1  UNL1        0.1463
     15 H          61.7812   89.2245   17.0532 H       1  UNL1        0.3278
@<TRIPOS>BOND
     1    12    13    1
     2    13    14    2
     3    14     1    1
     4     1     2   ar
     5     2     3   ar
     6     3     4   ar
     7     4     6    1
     8     6     7   ar
     9     7     8   ar
    10     8     9   ar
    11     9    10   ar
    12    10    11   ar
    13     4     5   ar
    14     5     1   ar
    15    11     6   ar
    16    12    15    1
@<TRIPOS>MOLECULE
*****
 15 16 0 0 0
SMALL
GASTEIGER

@<TRIPOS>ATOM
      1 C          63.2472   84.0425   11.6625 C.ar    1  UNL1        0.0519
      2 C          63.8208   83.7042   10.3184 C.ar    1  UNL1        0.0087
      3 C          63.2130   84.6318    9.3083 C.ar    1  UNL1        0.0071
      4 C          62.2638   85.5433   10.0282 C.ar    1  UNL1        0.0310
      5 S          62.2849   85.1791   11.4831 S.2     1  UNL1       -0.0852
      6 C          61.4383   86.6285    9.4028 C.ar    1  UNL1        0.0252
      7 C          60.3883   86.2824    8.3891 C.ar    1  UNL1        0.0036
      8 C          59.5630   87.3675    7.7638 C.ar    1  UNL1        0.0207
      9 C          59.7876   88.7989    8.1522 C.ar    1  UNL1        0.0989
     10 N          60.8376   89.1450    9.1659 N.ar    1  UNL1       -0.2423
     11 C          61.6629   88.0598    9.7912 C.ar    1  UNL1        0.0993
     12 O          62.8577   82.5404   15.3151 O.2     1  UNL1       -0.4087
     13 N          62.5272   83.2194   14.0192 N.2     1  UNL1       -0.0842
     14 C          63.5779   83.3634   12.9585 C.2     1  UNL1        0.1463
     15 H          62.2013   82.4505   15.9777 H       1  UNL1        0.3278
@<TRIPOS>BOND
     1    12    13    1
     2    13    14    2
     3    14     1    1
     4     1     2   ar
     5     2     3   ar
     6     3     4   ar
     7     4     6    1
     8     6     7   ar
     9     7     8   ar
    10     8     9   ar
    11     9    10   ar
    12    10    11   ar
    13     4     5   ar
    14     5     1   ar
    15    11     6   ar
    16    12    15    1
@<TRIPOS>MOLECULE
*****
 15 16 0 0 0
SMALL
GASTEIGER

@<TRIPOS>ATOM
      1 C          61.4577   86.4216    9.2339 C.ar    1  UNL1        0.0519
      2 C          62.5086   85.6606    8.4810 C.ar    1  UNL1        0.0087
      3 C          63.1910   84.7358    9.4449 C.ar    1  UNL1        0.0071
      4 C          62.5620   84.9253   10.7935 C.ar    1  UNL1        0.0310
      5 S          61.4908   85.9671   10.6630 S.2     1  UNL1       -0.0852
      6 C          62.9382   84.2002   12.0516 C.ar    1  UNL1        0.0252
      7 C          62.7440   82.7160   12.1484 C.ar    1  UNL1        0.0036
      8 C          63.1202   81.9909   13.4065 C.ar    1  UNL1        0.0207
      9 C          63.6906   82.7501   14.5677 C.ar    1  UNL1        0.0989
     10 N          63.8848   84.2343   14.4708 N.ar    1  UNL1       -0.2423
     11 C          63.5086   84.9593   13.2127 C.ar    1  UNL1        0.0993
     12 O          58.4002   88.0651    7.3103 O.2     1  UNL1       -0.4087
     13 N          59.3222   87.0313    7.8856 N.2     1  UNL1       -0.0842
     14 C          60.5357   87.4555    8.6585 C.2     1  UNL1        0.1463
     15 H          57.6422   87.8001    6.8275 H       1  UNL1        0.3278
@<TRIPOS>BOND
     1    12    13    1
     2    13    14    2
     3    14     1    1
     4     1     2   ar
     5     2     3   ar
     6     3     4   ar
     7     4     6    1
     8     6     7   ar
     9     7     8   ar
    10     8     9   ar
    11     9    10   ar
    12    10    11   ar
    13     4     5   ar
    14     5     1   ar
    15    11     6   ar
    16    12    15    1
@<TRIPOS>MOLECULE
*****
 15 16 0 0 0
SMALL
GASTEIGER

@<TRIPOS>ATOM
      1 C          62.3524   90.2380   11.4122 C.ar    1  UNL1        0.0519
      2 C          62.9346   90.9817   10.2468 C.ar    1  UNL1        0.0087
      3 C          64.1445   91.7255   10.7293 C.ar    1  UNL1        0.0071
      4 C          64.3101   91.4415   12.1929 C.ar    1  UNL1        0.0310
      5 S          63.2025   90.5223   12.6149 S.2     1  UNL1       -0.0852
      6 C          65.3932   91.9821   13.0788 C.ar    1  UNL1        0.0252
      7 C          65.8688   91.1822   14.2553 C.ar    1  UNL1        0.0036
      8 C          66.9518   91.7228   15.1411 C.ar    1  UNL1        0.0207
      9 C          67.5592   93.0631   14.8506 C.ar    1  UNL1        0.0989
     10 N          67.0837   93.8630   13.6742 N.ar    1  UNL1       -0.2423
     11 C          66.0006   93.3224   12.7883 C.ar    1  UNL1        0.0993
     12 O          58.9372   88.5249   12.4852 O.2     1  UNL1       -0.4087
     13 N          60.1555   89.3991   12.5168 N.2     1  UNL1       -0.0842
     14 C          61.1340   89.3636   11.3805 C.2     1  UNL1        0.1463
     15 H          58.3260   88.5471   13.1950 H       1  UNL1        0.3278
@<TRIPOS>BOND
     1    12    13    1
     2    13    14    2
     3    14     1    1
     4     1     2   ar
     5     2     3   ar
     6     3     4   ar
     7     4     6    1
     8     6     7   ar
     9     7     8   ar
    10     8     9   ar
    11     9    10   ar
    12    10    11   ar
    13     4     5   ar
    14     5     1   ar
    15    11     6   ar
    16    12    15    1
@<TRIPOS>MOLECULE
*****
 15 16 0 0 0
SMALL
GASTEIGER

@<TRIPOS>ATOM
      1 C          63.2065   90.2296   12.4617 C.ar    1  UNL1        0.0519
      2 C          63.5243   91.1476   11.3187 C.ar    1  UNL1        0.0087
      3 C          62.8603   90.6032   10.0887 C.ar    1  UNL1        0.0071
      4 C          62.1322   89.3489   10.4716 C.ar    1  UNL1        0.0310
      5 S          62.3462   89.1180   11.9382 S.2     1  UNL1       -0.0852
      6 C          61.3309   88.4782    9.5497 C.ar    1  UNL1        0.0252
      7 C          61.7091   87.0393    9.3594 C.ar    1  UNL1        0.0036
      8 C          60.9078   86.1687    8.4375 C.ar    1  UNL1        0.0207
      9 C          59.7281   86.7372    7.7059 C.ar    1  UNL1        0.0989
     10 N          59.3499   88.1761    7.8961 N.ar    1  UNL1       -0.2423
     11 C          60.1512   89.0467    8.8180 C.ar    1  UNL1        0.0993
     12 O          63.2371   90.1450   16.4293 O.2     1  UNL1       -0.4087
     13 N          62.7756   89.9802   15.0117 N.2     1  UNL1       -0.0842
     14 C          63.6680   90.3945   13.8794 C.2     1  UNL1        0.1463
     15 H          62.6796   89.8862   17.1366 H       1  UNL1        0.3278
@<TRIPOS>BOND
     1    12    13    1
     2    13    14    2
     3    14     1    1
     4     1     2   ar
     5     2     3   ar
     6     3     4   ar
     7     4     6    1
     8     6     7   ar
     9     7     8   ar
    10     8     9   ar
    11     9    10   ar
    12    10    11   ar
    13     4     5   ar
    14     5     1   ar
    15    11     6   ar
    16    12    15    1
@<TRIPOS>MOLECULE
*****
 15 16 0 0 0
SMALL
GASTEIGER

@<TRIPOS>ATOM
      1 C          61.5545   86.8126    9.5749 C.ar    1  UNL1        0.0519
      2 C          62.4380   86.0470    8.6349 C.ar    1  UNL1        0.0087
      3 C          63.0290   84.8937    9.3901 C.ar    1  UNL1        0.0071
      4 C          62.5109   84.9464   10.7968 C.ar    1  UNL1        0.0310
      5 S          61.5996   86.1324   10.9110 S.2     1  UNL1       -0.0852
      6 C          62.8454   83.9823   11.8963 C.ar    1  UNL1        0.0252
      7 C          62.8210   82.5060   11.6325 C.ar    1  UNL1        0.0036
      8 C          63.1554   81.5420   12.7319 C.ar    1  UNL1        0.0207
      9 C          63.5143   82.0544   14.0952 C.ar    1  UNL1        0.0989
     10 N          63.5387   83.5308   14.3591 N.ar    1  UNL1       -0.2423
     11 C          63.2042   84.4948   13.2596 C.ar    1  UNL1        0.0993
     12 O          60.1219   90.5101    9.7355 O.2     1  UNL1       -0.4087
     13 N          60.9116   89.2803   10.0724 N.2     1  UNL1       -0.0842
     14 C          60.7647   88.0425    9.2379 C.2     1  UNL1        0.1463
     15 H          60.2137   91.2833   10.2568 H       1  UNL1        0.3278
@<TRIPOS>BOND
     1    12    13    1
     2    13    14    2
     3    14     1    1
     4     1     2   ar
     5     2     3   ar
     6     3     4   ar
     7     4     6    1
     8     6     7   ar
     9     7     8   ar
    10     8     9   ar
    11     9    10   ar
    12    10    11   ar
    13     4     5   ar
    14     5     1   ar
    15    11     6   ar
    16    12    15    1
@<TRIPOS>MOLECULE
*****
 15 16 0 0 0
SMALL
GASTEIGER

@<TRIPOS>ATOM
      1 C          60.3381   87.7131    8.6720 C.ar    1  UNL1        0.0519
      2 C          61.0658   88.6250    9.6148 C.ar    1  UNL1        0.0087
      3 C          61.9995   87.7895   10.4396 C.ar    1  UNL1        0.0071
      4 C          61.8488   86.3613   10.0065 C.ar    1  UNL1        0.0310
      5 S          60.8220   86.3141    8.9140 S.2     1  UNL1       -0.0852
      6 C          62.5941   85.1865   10.5674 C.ar    1  UNL1        0.0252
      7 C          63.4037   84.3090    9.6594 C.ar    1  UNL1        0.0036
      8 C          64.1490   83.1343   10.2203 C.ar    1  UNL1        0.0207
      9 C          64.0847   82.8372   11.6892 C.ar    1  UNL1        0.0989
     10 N          63.2751   83.7148   12.5972 N.ar    1  UNL1       -0.2423
     11 C          62.5299   84.8894   12.0362 C.ar    1  UNL1        0.0993
     12 O          58.4653   89.8026    5.8655 O.2     1  UNL1       -0.4087
     13 N          59.4959   89.3881    6.8734 N.2     1  UNL1       -0.0842
     14 C          59.3074   88.1275    7.6640 C.2     1  UNL1        0.1463
     15 H          58.5831   90.5901    5.3716 H       1  UNL1        0.3278
@<TRIPOS>BOND
     1    12    13    1
     2    13    14    2
     3    14     1    1
     4     1     2   ar
     5     2     3   ar
     6     3     4   ar
     7     4     6    1
     8     6     7   ar
     9     7     8   ar
    10     8     9   ar
    11     9    10   ar
    12    10    11   ar
    13     4     5   ar
    14     5     1   ar
    15    11     6   ar
    16    12    15    1
@<TRIPOS>MOLECULE
*****
 15 16 0 0 0
SMALL
GASTEIGER

@<TRIPOS>ATOM
      1 C          64.2069   90.3448   14.3432 C.ar    1  UNL1        0.0519
      2 C          64.4774   88.8830   14.5436 C.ar    1  UNL1        0.0087
      3 C          63.7741   88.1280   13.4549 C.ar    1  UNL1        0.0071
      4 C          63.0689   89.1231   12.5816 C.ar    1  UNL1        0.0310
      5 S          63.3364   90.4931   13.1306 S.2     1  UNL1       -0.0852
      6 C          62.2415   88.8041   11.3717 C.ar    1  UNL1        0.0252
      7 C          61.4773   89.8923   10.6776 C.ar    1  UNL1        0.0036
      8 C          60.6500   89.5732    9.4678 C.ar    1  UNL1        0.0207
      9 C          60.5868   88.1661    8.9521 C.ar    1  UNL1        0.0989
     10 N          61.3510   87.0779    9.6463 N.ar    1  UNL1       -0.2423
     11 C          62.1784   87.3969   10.8561 C.ar    1  UNL1        0.0993
     12 O          64.4440   93.0183   17.2666 O.2     1  UNL1       -0.4087
     13 N          63.9337   91.9011   16.4056 N.2     1  UNL1       -0.0842
     14 C          64.7172   91.4621   15.2042 C.2     1  UNL1        0.1463
     15 H          63.9545   93.2925   18.0170 H       1  UNL1        0.3278
@<TRIPOS>BOND
     1    12    13    1
     2    13    14    2
     3    14     1    1
     4     1     2   ar
     5     2     3   ar
     6     3     4   ar
     7     4     6    1
     8     6     7   ar
     9     7     8   ar
    10     8     9   ar
    11     9    10   ar
    12    10    11   ar
    13     4     5   ar
    14     5     1   ar
    15    11     6   ar
    16    12    15    1
