@<TRIPOS>MOLECULE
*****
 22 24 0 0 0
SMALL
GASTEIGER

@<TRIPOS>ATOM
      1 C          62.9706   82.5114   12.1336 C.3     1  UNL1        0.0436
      2 C          63.4854   83.1039   13.4118 C.3     1  UNL1        0.0712
      3 N          63.7269   82.2242   14.6024 N.3     1  UNL1       -0.2974
      4 C          63.4536   80.7519   14.5149 C.3     1  UNL1        0.0689
      5 C          62.9388   80.1593   13.2367 C.3     1  UNL1        0.0212
      6 C          62.6973   81.0391   12.0460 C.3     1  UNL1        0.0238
      7 C          62.4557   81.9188   10.8553 C.3     1  UNL1        0.0082
      8 H          63.1468   82.5869   15.3590 H       1  UNL1        0.1232
      9 C          63.1523   82.2312   12.8346 C.ar    1  UNL1       -0.0217
     10 C          64.5523   82.7458   12.6754 C.ar    1  UNL1       -0.0034
     11 C          65.0073   83.9379   13.4639 C.ar    1  UNL1        0.0119
     12 C          64.0624   84.6154   14.4116 C.ar    1  UNL1        0.0682
     13 CL         64.5175   85.8076   15.2002 Cl      1  UNL1       -0.0814
     14 C          62.6625   84.1008   14.5708 C.ar    1  UNL1        0.0679
     15 CL         61.7176   84.7784   15.5185 Cl      1  UNL1       -0.0814
     16 C          62.2074   82.9087   13.7823 C.ar    1  UNL1        0.0080
     17 C          62.9889   83.8693   11.4967 C.3     1  UNL1        0.1211
     18 O          62.0414   84.9320   11.9688 O.3     1  UNL1       -0.3532
     19 C          62.3242   86.3748   11.6715 C.3     1  UNL1        0.1740
     20 C          63.9547   84.1646   10.3876 C.3     1  UNL1        0.0556
     21 C          62.9996   85.4773    8.3591 C.2     1  UNL1       -0.0048
     22 C          63.4783   84.1915    8.9655 C.2     1  UNL1       -0.0236
@<TRIPOS>BOND
     1    21    22    2
     2    22    20    1
     3    20    17    1
     4    17    18    1
     5    18    19    1
     6     1    17    1
     7     1     2    1
     8     2     3    1
     9     3     4    1
    10     4     5    1
    11     5     6    1
    12     6     9    1
    13     9    10   ar
    14    10    11   ar
    15    11    12   ar
    16    12    13    1
    17    12    14   ar
    18    14    15    1
    19    14    16   ar
    20     6     7    1
    21     6     1    1
    22    16     9   ar
    23     7     1    1
    24     3     8    1
@<TRIPOS>MOLECULE
*****
 22 24 0 0 0
SMALL
GASTEIGER

@<TRIPOS>ATOM
      1 C          45.7846   77.9090   20.4897 C.3     1  UNL1        0.0436
      2 C          45.7349   79.0494   19.5166 C.3     1  UNL1        0.0712
      3 N          45.4562   80.4401   20.0046 N.3     1  UNL1       -0.2974
      4 C          45.2272   80.6905   21.4658 C.3     1  UNL1        0.0689
      5 C          45.2769   79.5501   22.4389 C.3     1  UNL1        0.0212
      6 C          45.5555   78.1593   21.9508 C.3     1  UNL1        0.0238
      7 C          45.8342   76.7685   21.4628 C.3     1  UNL1        0.0082
      8 H          44.6204   80.7616   19.5163 H       1  UNL1        0.1232
      9 C          45.6591   78.6733   20.5455 C.ar    1  UNL1       -0.0217
     10 C          44.4310   78.7689   19.6895 C.ar    1  UNL1       -0.0034
     11 C          44.5345   79.2829   18.2841 C.ar    1  UNL1        0.0119
     12 C          45.8661   79.7011   17.7346 C.ar    1  UNL1        0.0682
     13 CL         45.9697   80.2150   16.3292 Cl      1  UNL1       -0.0814
     14 C          47.0942   79.6054   18.5906 C.ar    1  UNL1        0.0679
     15 CL         48.4258   80.0237   18.0411 Cl      1  UNL1       -0.0814
     16 C          46.9907   79.0915   19.9960 C.ar    1  UNL1        0.0080
     17 C          46.0777   76.9616   19.3644 C.3     1  UNL1        0.1211
     18 O          44.9506   76.3473   18.5883 O.3     1  UNL1       -0.3532
     19 C          45.1693   75.9040   17.1720 C.3     1  UNL1        0.1740
     20 C          47.4979   76.6283   19.0152 C.3     1  UNL1        0.0556
     21 C          49.3126   75.0409   19.9833 C.2     1  UNL1       -0.0048
     22 C          48.0216   75.2418   19.2464 C.2     1  UNL1       -0.0236
@<TRIPOS>BOND
     1    21    22    2
     2    22    20    1
     3    20    17    1
     4    17    18    1
     5    18    19    1
     6     1    17    1
     7     1     2    1
     8     2     3    1
     9     3     4    1
    10     4     5    1
    11     5     6    1
    12     6     9    1
    13     9    10   ar
    14    10    11   ar
    15    11    12   ar
    16    12    13    1
    17    12    14   ar
    18    14    15    1
    19    14    16   ar
    20     6     7    1
    21     6     1    1
    22    16     9   ar
    23     7     1    1
    24     3     8    1
@<TRIPOS>MOLECULE
*****
 22 24 0 0 0
SMALL
GASTEIGER

@<TRIPOS>ATOM
      1 C          61.5967   87.7608    9.8606 C.3     1  UNL1        0.0436
      2 C          60.3797   88.6133   10.0661 C.3     1  UNL1        0.0712
      3 N          59.1015   88.2793    9.3559 N.3     1  UNL1       -0.2974
      4 C          59.0402   87.0929    8.4401 C.3     1  UNL1        0.0689
      5 C          60.2572   86.2405    8.2345 C.3     1  UNL1        0.0212
      6 C          61.5354   86.5744    8.9448 C.3     1  UNL1        0.0238
      7 C          62.8137   86.9083    9.6551 C.3     1  UNL1        0.0082
      8 H          58.8532   89.0957    8.7971 H       1  UNL1        0.1232
      9 C          60.8681   87.7515    9.5922 C.ar    1  UNL1       -0.0217
     10 C          60.8405   89.0773    8.8909 C.ar    1  UNL1       -0.0034
     11 C          60.1732   90.2544    9.5383 C.ar    1  UNL1        0.0119
     12 C          59.5336   90.1058   10.8869 C.ar    1  UNL1        0.0682
     13 CL         58.8664   91.2830   11.5343 Cl      1  UNL1       -0.0814
     14 C          59.5613   88.7802   11.5882 C.ar    1  UNL1        0.0679
     15 CL         58.9217   88.6316   12.9369 Cl      1  UNL1       -0.0814
     16 C          60.2286   87.6030   10.9408 C.ar    1  UNL1        0.0080
     17 C          62.3701   88.6385   10.7994 C.3     1  UNL1        0.1211
     18 O          62.3490   88.3621   12.2736 O.3     1  UNL1       -0.3532
     19 C          63.6371   88.1889   13.0226 C.3     1  UNL1        0.1740
     20 C          63.1646   89.7928   10.2641 C.3     1  UNL1        0.0556
     21 C          64.4191   92.0061   10.7909 C.2     1  UNL1       -0.0048
     22 C          63.2976   91.0502   11.0711 C.2     1  UNL1       -0.0236
@<TRIPOS>BOND
     1    21    22    2
     2    22    20    1
     3    20    17    1
     4    17    18    1
     5    18    19    1
     6     1    17    1
     7     1     2    1
     8     2     3    1
     9     3     4    1
    10     4     5    1
    11     5     6    1
    12     6     9    1
    13     9    10   ar
    14    10    11   ar
    15    11    12   ar
    16    12    13    1
    17    12    14   ar
    18    14    15    1
    19    14    16   ar
    20     6     7    1
    21     6     1    1
    22    16     9   ar
    23     7     1    1
    24     3     8    1
@<TRIPOS>MOLECULE
*****
 22 24 0 0 0
SMALL
GASTEIGER

@<TRIPOS>ATOM
      1 C          63.1263   84.6393   12.0723 C.3     1  UNL1        0.0436
      2 C          63.4553   83.1810   12.1953 C.3     1  UNL1        0.0712
      3 N          63.5695   82.3315   10.9644 N.3     1  UNL1       -0.2974
      4 C          63.3547   82.9402    9.6104 C.3     1  UNL1        0.0689
      5 C          63.0256   84.3985    9.4874 C.3     1  UNL1        0.0212
      6 C          62.9114   85.2480   10.7183 C.3     1  UNL1        0.0238
      7 C          62.7972   86.0976   11.9493 C.3     1  UNL1        0.0082
      8 H          62.8868   81.5799   11.0610 H       1  UNL1        0.1232
      9 C          63.2254   84.0546   11.5710 C.ar    1  UNL1       -0.0217
     10 C          64.6525   83.6953   11.8620 C.ar    1  UNL1       -0.0034
     11 C          64.9665   82.5019   12.7147 C.ar    1  UNL1        0.0119
     12 C          63.8535   81.6678   13.2765 C.ar    1  UNL1        0.0682
     13 CL         64.1676   80.4744   14.1293 Cl      1  UNL1       -0.0814
     14 C          62.4266   82.0271   12.9856 C.ar    1  UNL1        0.0679
     15 CL         61.3137   81.1930   13.5474 Cl      1  UNL1       -0.0814
     16 C          62.1125   83.2205   12.1328 C.ar    1  UNL1        0.0080
     17 C          63.1844   84.7783   13.5647 C.3     1  UNL1        0.1211
     18 O          61.9620   84.5087   14.3912 O.3     1  UNL1       -0.3532
     19 C          62.1027   84.1118   15.8309 C.3     1  UNL1        0.1740
     20 C          64.4649   85.1870   14.2306 C.3     1  UNL1        0.0556
     21 C          64.4034   87.7527   14.6350 C.2     1  UNL1       -0.0048
     22 C          64.4811   86.3544   15.1723 C.2     1  UNL1       -0.0236
@<TRIPOS>BOND
     1    21    22    2
     2    22    20    1
     3    20    17    1
     4    17    18    1
     5    18    19    1
     6     1    17    1
     7     1     2    1
     8     2     3    1
     9     3     4    1
    10     4     5    1
    11     5     6    1
    12     6     9    1
    13     9    10   ar
    14    10    11   ar
    15    11    12   ar
    16    12    13    1
    17    12    14   ar
    18    14    15    1
    19    14    16   ar
    20     6     7    1
    21     6     1    1
    22    16     9   ar
    23     7     1    1
    24     3     8    1
@<TRIPOS>MOLECULE
*****
 22 24 0 0 0
SMALL
GASTEIGER

@<TRIPOS>ATOM
      1 C          65.5895   92.5101   12.1353 C.3     1  UNL1        0.0436
      2 C          66.4059   92.3468   13.3830 C.3     1  UNL1        0.0712
      3 N          66.0273   91.3077   14.3963 N.3     1  UNL1       -0.2974
      4 C          64.8323   90.4319   14.1620 C.3     1  UNL1        0.0689
      5 C          64.0159   90.5951   12.9142 C.3     1  UNL1        0.0212
      6 C          64.3945   91.6342   11.9009 C.3     1  UNL1        0.0238
      7 C          64.7731   92.6733   10.8875 C.3     1  UNL1        0.0082
      8 H          65.8643   91.7991   15.2752 H       1  UNL1        0.1232
      9 C          65.5558   92.0456   12.7566 C.ar    1  UNL1       -0.0217
     10 C          65.3421   92.9752   13.9143 C.ar    1  UNL1       -0.0034
     11 C          66.5034   93.3866   14.7700 C.ar    1  UNL1        0.0119
     12 C          67.8782   92.8684   14.4681 C.ar    1  UNL1        0.0682
     13 CL         69.0395   93.2798   15.3239 Cl      1  UNL1       -0.0814
     14 C          68.0919   91.9388   13.3104 C.ar    1  UNL1        0.0679
     15 CL         69.4668   91.4206   13.0085 Cl      1  UNL1       -0.0814
     16 C          66.9306   91.5274   12.4547 C.ar    1  UNL1        0.0080
     17 C          66.4980   93.6156   11.6855 C.3     1  UNL1        0.1211
     18 O          67.6937   93.3046   10.8349 O.3     1  UNL1       -0.3532
     19 C          67.6486   93.5568    9.3568 C.3     1  UNL1        0.1740
     20 C          66.2108   95.0323   12.0864 C.3     1  UNL1        0.0556
     21 C          65.1528   96.3456   10.1101 C.2     1  UNL1       -0.0048
     22 C          66.2874   96.1303   11.0675 C.2     1  UNL1       -0.0236
@<TRIPOS>BOND
     1    21    22    2
     2    22    20    1
     3    20    17    1
     4    17    18    1
     5    18    19    1
     6     1    17    1
     7     1     2    1
     8     2     3    1
     9     3     4    1
    10     4     5    1
    11     5     6    1
    12     6     9    1
    13     9    10   ar
    14    10    11   ar
    15    11    12   ar
    16    12    13    1
    17    12    14   ar
    18    14    15    1
    19    14    16   ar
    20     6     7    1
    21     6     1    1
    22    16     9   ar
    23     7     1    1
    24     3     8    1
@<TRIPOS>MOLECULE
*****
 22 24 0 0 0
SMALL
GASTEIGER

@<TRIPOS>ATOM
      1 C          63.2244   83.9995   12.2771 C.3     1  UNL1        0.0436
      2 C          63.3401   84.0471   13.7718 C.3     1  UNL1        0.0712
      3 N          63.7457   82.8194   14.5322 N.3     1  UNL1       -0.2974
      4 C          64.0357   81.5441   13.7978 C.3     1  UNL1        0.0689
      5 C          63.9200   81.4964   12.3030 C.3     1  UNL1        0.0212
      6 C          63.5144   82.7241   11.5427 C.3     1  UNL1        0.0238
      7 C          63.1088   83.9519   10.7823 C.3     1  UNL1        0.0082
      8 H          62.9912   82.6166   15.1879 H       1  UNL1        0.1232
      9 C          63.4138   83.4879   12.8297 C.ar    1  UNL1       -0.0217
     10 C          62.1155   83.5253   13.5801 C.ar    1  UNL1       -0.0034
     11 C          62.0148   84.2891   14.8671 C.ar    1  UNL1        0.0119
     12 C          63.2124   85.0156   15.4038 C.ar    1  UNL1        0.0682
     13 CL         63.1117   85.7794   16.6908 Cl      1  UNL1       -0.0814
     14 C          64.5107   84.9783   14.6534 C.ar    1  UNL1        0.0679
     15 CL         65.7083   85.7048   15.1900 Cl      1  UNL1       -0.0814
     16 C          64.6114   84.2144   13.3663 C.ar    1  UNL1        0.0080
     17 C          62.8229   85.4446   12.2621 C.3     1  UNL1        0.1211
     18 O          63.7088   86.4759   12.8959 O.3     1  UNL1       -0.3532
     19 C          63.3842   87.9334   12.7530 C.3     1  UNL1        0.1740
     20 C          61.5353   85.8586   11.6133 C.3     1  UNL1        0.0556
     21 C          60.7386   86.3080    9.1815 C.2     1  UNL1       -0.0048
     22 C          61.5576   86.7038   10.3743 C.2     1  UNL1       -0.0236
@<TRIPOS>BOND
     1    21    22    2
     2    22    20    1
     3    20    17    1
     4    17    18    1
     5    18    19    1
     6     1    17    1
     7     1     2    1
     8     2     3    1
     9     3     4    1
    10     4     5    1
    11     5     6    1
    12     6     9    1
    13     9    10   ar
    14    10    11   ar
    15    11    12   ar
    16    12    13    1
    17    12    14   ar
    18    14    15    1
    19    14    16   ar
    20     6     7    1
    21     6     1    1
    22    16     9   ar
    23     7     1    1
    24     3     8    1
@<TRIPOS>MOLECULE
*****
 22 24 0 0 0
SMALL
GASTEIGER

@<TRIPOS>ATOM
      1 C          61.3776   93.5583   -0.1405 C.3     1  UNL1        0.0436
      2 C          62.4448   94.5641    0.1746 C.3     1  UNL1        0.0712
      3 N          62.9243   95.5069   -0.8890 N.3     1  UNL1       -0.2974
      4 C          62.3365   95.4438   -2.2676 C.3     1  UNL1        0.0689
      5 C          61.2692   94.4380   -2.5826 C.3     1  UNL1        0.0212
      6 C          60.7898   93.4952   -1.5191 C.3     1  UNL1        0.0238
      7 C          60.3102   92.5524   -0.4554 C.3     1  UNL1        0.0082
      8 H          63.9274   95.3520   -0.9893 H       1  UNL1        0.1232
      9 C          61.7453   94.1124   -0.5413 C.ar    1  UNL1       -0.0217
     10 C          61.3160   95.2864    0.2878 C.ar    1  UNL1       -0.0034
     11 C          62.2716   95.9036    1.2656 C.ar    1  UNL1        0.0119
     12 C          63.6564   95.3466    1.4143 C.ar    1  UNL1        0.0682
     13 CL         64.6119   95.9638    2.3921 Cl      1  UNL1       -0.0814
     14 C          64.0857   94.1726    0.5853 C.ar    1  UNL1        0.0679
     15 CL         65.4705   93.6157    0.7340 Cl      1  UNL1       -0.0814
     16 C          63.1301   93.5555   -0.3926 C.ar    1  UNL1        0.0080
     17 C          61.4401   93.0504    1.2695 C.3     1  UNL1        0.1211
     18 O          60.6510   93.7319    2.3479 O.3     1  UNL1       -0.3532
     19 C          59.6416   92.9571    3.1422 C.3     1  UNL1        0.1740
     20 C          62.2917   91.8608    1.6011 C.3     1  UNL1        0.0556
     21 C          63.8111   90.5828    3.2769 C.2     1  UNL1       -0.0048
     22 C          62.8778   91.7176    2.9744 C.2     1  UNL1       -0.0236
@<TRIPOS>BOND
     1    21    22    2
     2    22    20    1
     3    20    17    1
     4    17    18    1
     5    18    19    1
     6     1    17    1
     7     1     2    1
     8     2     3    1
     9     3     4    1
    10     4     5    1
    11     5     6    1
    12     6     9    1
    13     9    10   ar
    14    10    11   ar
    15    11    12   ar
    16    12    13    1
    17    12    14   ar
    18    14    15    1
    19    14    16   ar
    20     6     7    1
    21     6     1    1
    22    16     9   ar
    23     7     1    1
    24     3     8    1
@<TRIPOS>MOLECULE
*****
 22 24 0 0 0
SMALL
GASTEIGER

@<TRIPOS>ATOM
      1 C          63.2665   83.5483   14.0638 C.3     1  UNL1        0.0436
      2 C          63.2451   83.2473   12.5945 C.3     1  UNL1        0.0712
      3 N          62.4341   82.0968   12.0763 N.3     1  UNL1       -0.2974
      4 C          61.6444   81.2473   13.0275 C.3     1  UNL1        0.0689
      5 C          61.6659   81.5482   14.4969 C.3     1  UNL1        0.0212
      6 C          62.4769   82.6988   15.0150 C.3     1  UNL1        0.0238
      7 C          63.2879   83.8493   15.5331 C.3     1  UNL1        0.0082
      8 H          63.0815   81.4740   11.5933 H       1  UNL1        0.1232
      9 C          62.9204   83.0154   13.6175 C.ar    1  UNL1       -0.0217
     10 C          64.0909   82.2922   13.0200 C.ar    1  UNL1       -0.0034
     11 C          64.5344   82.6089   11.6226 C.ar    1  UNL1        0.0119
     12 C          63.8075   83.6488   10.8225 C.ar    1  UNL1        0.0682
     13 CL         64.2510   83.9654    9.4249 Cl      1  UNL1       -0.0814
     14 C          62.6370   84.3720   11.4198 C.ar    1  UNL1        0.0679
     15 CL         61.9100   85.4119   10.6198 Cl      1  UNL1       -0.0814
     16 C          62.1934   84.0553   12.8174 C.ar    1  UNL1        0.0080
     17 C          64.1906   84.7030   13.8138 C.3     1  UNL1        0.1211
     18 O          65.6654   84.4669   13.6745 O.3     1  UNL1       -0.3532
     19 C          66.6115   85.0012   14.7087 C.3     1  UNL1        0.1740
     20 C          63.6400   86.0940   13.7030 C.3     1  UNL1        0.0556
     21 C          64.1868   88.6089   14.0584 C.2     1  UNL1       -0.0048
     22 C          64.2028   87.1933   14.5543 C.2     1  UNL1       -0.0236
@<TRIPOS>BOND
     1    21    22    2
     2    22    20    1
     3    20    17    1
     4    17    18    1
     5    18    19    1
     6     1    17    1
     7     1     2    1
     8     2     3    1
     9     3     4    1
    10     4     5    1
    11     5     6    1
    12     6     9    1
    13     9    10   ar
    14    10    11   ar
    15    11    12   ar
    16    12    13    1
    17    12    14   ar
    18    14    15    1
    19    14    16   ar
    20     6     7    1
    21     6     1    1
    22    16     9   ar
    23     7     1    1
    24     3     8    1
@<TRIPOS>MOLECULE
*****
 22 24 0 0 0
SMALL
GASTEIGER

@<TRIPOS>ATOM
      1 C          62.7675   93.4480    0.5650 C.3     1  UNL1        0.0436
      2 C          61.2799   93.4678    0.7562 C.3     1  UNL1        0.0712
      3 N          60.6747   92.8717    1.9925 N.3     1  UNL1       -0.2974
      4 C          61.5571   92.2558    3.0375 C.3     1  UNL1        0.0689
      5 C          63.0447   92.2360    2.8463 C.3     1  UNL1        0.0212
      6 C          63.6499   92.8321    1.6101 C.3     1  UNL1        0.0238
      7 C          64.2552   93.4282    0.3738 C.3     1  UNL1        0.0082
      8 H          60.0315   92.1429    1.6834 H       1  UNL1        0.1232
      9 C          62.2816   93.1991    1.1171 C.ar    1  UNL1       -0.0217
     10 C          61.5008   92.2295    0.2803 C.ar    1  UNL1       -0.0034
     11 C          60.1325   92.5965   -0.2127 C.ar    1  UNL1        0.0119
     12 C          59.5449   93.9330    0.1313 C.ar    1  UNL1        0.0682
     13 CL         58.1765   94.3000   -0.3617 Cl      1  UNL1       -0.0814
     14 C          60.3256   94.9026    0.9681 C.ar    1  UNL1        0.0679
     15 CL         59.7381   96.2392    1.3120 Cl      1  UNL1       -0.0814
     16 C          61.6940   94.5357    1.4611 C.ar    1  UNL1        0.0080
     17 C          62.6076   94.1477   -0.7520 C.3     1  UNL1        0.1211
     18 O          62.4259   95.6361   -0.7934 O.3     1  UNL1       -0.3532
     19 C          63.5741   96.5214   -1.1782 C.3     1  UNL1        0.1740
     20 C          62.6292   93.3591   -2.0279 C.3     1  UNL1        0.0556
     21 C          60.5901   93.9779   -3.5142 C.2     1  UNL1       -0.0048
     22 C          62.0727   93.9544   -3.2871 C.2     1  UNL1       -0.0236
@<TRIPOS>BOND
     1    21    22    2
     2    22    20    1
     3    20    17    1
     4    17    18    1
     5    18    19    1
     6     1    17    1
     7     1     2    1
     8     2     3    1
     9     3     4    1
    10     4     5    1
    11     5     6    1
    12     6     9    1
    13     9    10   ar
    14    10    11   ar
    15    11    12   ar
    16    12    13    1
    17    12    14   ar
    18    14    15    1
    19    14    16   ar
    20     6     7    1
    21     6     1    1
    22    16     9   ar
    23     7     1    1
    24     3     8    1
