@<TRIPOS>MOLECULE
*****
 35 39 0 0 0
SMALL
GASTEIGER

@<TRIPOS>ATOM
      1 C          59.4132   90.6362    5.3698 C.2     1  UNL1        0.0033
      2 C          60.4719   91.0964    4.4119 C.2     1  UNL1        0.0641
      3 C          61.9078   90.7337    4.6501 C.3     1  UNL1        0.0383
      4 C          62.9664   91.1939    3.6923 C.3     1  UNL1        0.0557
      5 C          62.5892   92.0167    2.4962 C.3     1  UNL1        0.2028
      6 N          61.1533   92.3793    2.2579 N.pl3   1  UNL1       -0.1873
      7 C          60.0947   91.9192    3.2158 C.2     1  UNL1        0.3653
      8 N          58.6588   92.2818    2.9775 N.2     1  UNL1        0.1549
      9 O          58.2816   93.1046    1.7814 O.2     1  UNL1       -0.2751
     10 C          59.3403   93.5648    0.8235 C.3     1  UNL1        0.2886
     11 C          60.7761   93.2021    1.0618 C.3     1  UNL1        0.2096
     12 C          61.8347   93.6623    0.1039 C.3     1  UNL1        0.0552
     13 C          58.9631   94.3876   -0.3726 C.ar    1  UNL1        0.0310
     14 C          60.0059   95.1962   -1.0858 C.ar    1  UNL1        0.0316
     15 C          59.6286   96.0190   -2.2819 C.ar    1  UNL1        0.1694
     16 F          60.6714   96.8276   -2.9951 F       1  UNL1       -0.2017
     17 C          58.2086   96.0332   -2.7649 C.ar    1  UNL1        0.1946
     18 F          57.8314   96.8560   -3.9610 F       1  UNL1       -0.1994
     19 C          57.1657   95.2245   -2.0517 C.ar    1  UNL1        0.1694
     20 F          55.7457   95.2387   -2.5347 F       1  UNL1       -0.2017
     21 C          57.5430   94.4017   -0.8556 C.ar    1  UNL1        0.0316
     22 C          60.7924   89.6472    8.9572 C.ar    1  UNL1        0.1547
     23 C          60.4151   90.4700    7.7611 C.ar    1  UNL1        0.0384
     24 C          59.7904   89.8134    6.5659 C.ar    1  UNL1        0.0030
     25 C          59.5429   88.3339    6.5668 C.ar    1  UNL1        0.0017
     26 C          59.9201   87.5111    7.7629 C.ar    1  UNL1        0.0206
     27 C          60.5448   88.1678    8.9581 C.ar    1  UNL1        0.0994
     28 N          60.9221   87.3450   10.1543 N.ar    1  UNL1       -0.2839
     29 C          60.4846   87.5918   11.5677 C.ar    1  UNL1        0.1826
     30 N          61.0951   86.5303   12.4339 N.ar    1  UNL1       -0.2280
     31 C          61.9100   85.6274   11.5559 C.ar    1  UNL1        0.0786
     32 C          62.6941   84.4311   12.0075 C.3     1  UNL1        0.0538
     33 C          61.8030   86.1310   10.1470 C.ar    1  UNL1        0.0963
     34 C          62.8196   90.8296   10.0718 C.3     1  UNL1        0.2525
     35 O          61.4171   90.3039   10.1524 O.3     1  UNL1       -0.4700
@<TRIPOS>BOND
     1    34    35    1
     2    35    22    1
     3    22    23   ar
     4    23    24   ar
     5    24     1    1
     6     1     2    2
     7     2     3    1
     8     3     4    1
     9     4     5    1
    10     5     6    1
    11     6     7    1
    12     7     8    2
    13     8     9    1
    14     9    10    1
    15    10    13    1
    16    13    14   ar
    17    14    15   ar
    18    15    16    1
    19    15    17   ar
    20    17    18    1
    21    17    19   ar
    22    19    20    1
    23    19    21   ar
    24    10    11    1
    25    11    12    1
    26    24    25   ar
    27    25    26   ar
    28    26    27   ar
    29    27    28    1
    30    28    29   ar
    31    29    30   ar
    32    30    31   ar
    33    31    32    1
    34    31    33   ar
    35    27    22   ar
    36    33    28   ar
    37     7     2    1
    38    21    13   ar
    39    11     6    1
@<TRIPOS>MOLECULE
*****
 35 39 0 0 0
SMALL
GASTEIGER

@<TRIPOS>ATOM
      1 C          59.4461   90.6274    5.3494 C.2     1  UNL1        0.0033
      2 C          60.5023   91.0883    4.3891 C.2     1  UNL1        0.0641
      3 C          61.9388   90.7257    4.6234 C.3     1  UNL1        0.0383
      4 C          62.9948   91.1866    3.6631 C.3     1  UNL1        0.0557
      5 C          62.6144   92.0101    2.4685 C.3     1  UNL1        0.2028
      6 N          61.1779   92.3727    2.2342 N.pl3   1  UNL1       -0.1873
      7 C          60.1219   91.9118    3.1945 C.2     1  UNL1        0.3653
      8 N          58.6853   92.2745    2.9602 N.2     1  UNL1        0.1549
      9 O          58.3049   93.0980    1.7655 O.2     1  UNL1       -0.2751
     10 C          59.3610   93.5589    0.8052 C.3     1  UNL1        0.2886
     11 C          60.7975   93.1963    1.0396 C.3     1  UNL1        0.2096
     12 C          61.8536   93.6572    0.0793 C.3     1  UNL1        0.0552
     13 C          58.9806   94.3824   -0.3894 C.ar    1  UNL1        0.0310
     14 C          57.5603   94.3932   -0.8714 C.ar    1  UNL1        0.0316
     15 C          57.1799   95.2167   -2.0660 C.ar    1  UNL1        0.1694
     16 F          55.7595   95.2275   -2.5480 F       1  UNL1       -0.2017
     17 C          58.2198   96.0294   -2.7786 C.ar    1  UNL1        0.1946
     18 F          57.8394   96.8529   -3.9732 F       1  UNL1       -0.1994
     19 C          59.6403   96.0187   -2.2966 C.ar    1  UNL1        0.1694
     20 F          60.6803   96.8314   -3.0093 F       1  UNL1       -0.2017
     21 C          60.0207   95.1952   -1.1020 C.ar    1  UNL1        0.0316
     22 C          60.0296   87.4912    7.7103 C.ar    1  UNL1        0.1547
     23 C          59.6492   88.3147    6.5156 C.ar    1  UNL1        0.0384
     24 C          59.8265   89.8039    6.5440 C.ar    1  UNL1        0.0030
     25 C          60.3842   90.4697    7.7671 C.ar    1  UNL1        0.0017
     26 C          60.7647   89.6461    8.9617 C.ar    1  UNL1        0.0206
     27 C          60.5873   88.1569    8.9333 C.ar    1  UNL1        0.0994
     28 N          60.9677   87.3334   10.1279 N.ar    1  UNL1       -0.2839
     29 C          60.5346   87.5797   11.5427 C.ar    1  UNL1        0.1826
     30 N          61.1473   86.5175   12.4067 N.ar    1  UNL1       -0.2280
     31 C          61.9590   85.6147   11.5258 C.ar    1  UNL1        0.0786
     32 C          62.7439   84.4177   11.9745 C.3     1  UNL1        0.0538
     33 C          61.8480   86.1189   10.1175 C.ar    1  UNL1        0.0963
     34 C          60.8688   85.1386    6.9955 C.3     1  UNL1        0.2525
     35 O          59.8522   86.0020    7.6818 O.3     1  UNL1       -0.4700
@<TRIPOS>BOND
     1    34    35    1
     2    35    22    1
     3    22    23   ar
     4    23    24   ar
     5    24     1    1
     6     1     2    2
     7     2     3    1
     8     3     4    1
     9     4     5    1
    10     5     6    1
    11     6     7    1
    12     7     8    2
    13     8     9    1
    14     9    10    1
    15    10    13    1
    16    13    14   ar
    17    14    15   ar
    18    15    16    1
    19    15    17   ar
    20    17    18    1
    21    17    19   ar
    22    19    20    1
    23    19    21   ar
    24    10    11    1
    25    11    12    1
    26    24    25   ar
    27    25    26   ar
    28    26    27   ar
    29    27    28    1
    30    28    29   ar
    31    29    30   ar
    32    30    31   ar
    33    31    32    1
    34    31    33   ar
    35    27    22   ar
    36    33    28   ar
    37     7     2    1
    38    21    13   ar
    39    11     6    1
@<TRIPOS>MOLECULE
*****
 35 39 0 0 0
SMALL
GASTEIGER

@<TRIPOS>ATOM
      1 C          59.4467   90.6289    5.3459 C.2     1  UNL1        0.0033
      2 C          60.5019   91.0890    4.3842 C.2     1  UNL1        0.0641
      3 C          61.9384   90.7252    4.6165 C.3     1  UNL1        0.0383
      4 C          62.9935   91.1853    3.6548 C.3     1  UNL1        0.0557
      5 C          62.6121   92.0092    2.4607 C.3     1  UNL1        0.2028
      6 N          61.1756   92.3729    2.2284 N.pl3   1  UNL1       -0.1873
      7 C          60.1205   91.9128    3.1901 C.2     1  UNL1        0.3653
      8 N          58.6839   92.2766    2.9578 N.2     1  UNL1        0.1549
      9 O          58.3025   93.1004    1.7637 O.2     1  UNL1       -0.2751
     10 C          59.3577   93.5605    0.8020 C.3     1  UNL1        0.2886
     11 C          60.7942   93.1968    1.0343 C.3     1  UNL1        0.2096
     12 C          61.8493   93.6569    0.0726 C.3     1  UNL1        0.0552
     13 C          58.9763   94.3844   -0.3921 C.ar    1  UNL1        0.0310
     14 C          60.0285   95.1376   -1.1507 C.ar    1  UNL1        0.0316
     15 C          59.6471   95.9614   -2.3447 C.ar    1  UNL1        0.1694
     16 F          60.6993   96.7146   -3.1033 F       1  UNL1       -0.2017
     17 C          58.2135   96.0321   -2.7802 C.ar    1  UNL1        0.1946
     18 F          57.8321   96.8559   -3.9743 F       1  UNL1       -0.1994
     19 C          57.1612   95.2789   -2.0216 C.ar    1  UNL1        0.1694
     20 F          55.7275   95.3495   -2.4571 F       1  UNL1       -0.2017
     21 C          57.5426   94.4550   -0.8276 C.ar    1  UNL1        0.0316
     22 C          60.0291   87.4923    7.7066 C.ar    1  UNL1        0.1547
     23 C          59.6477   88.3162    6.5126 C.ar    1  UNL1        0.0384
     24 C          59.8281   89.8050    6.5400 C.ar    1  UNL1        0.0030
     25 C          60.3899   90.4701    7.7616 C.ar    1  UNL1        0.0017
     26 C          60.7713   89.6462    8.9557 C.ar    1  UNL1        0.0206
     27 C          60.5909   88.1573    8.9282 C.ar    1  UNL1        0.0994
     28 N          60.9723   87.3335   10.1222 N.ar    1  UNL1       -0.2839
     29 C          60.5427   87.5811   11.5379 C.ar    1  UNL1        0.1826
     30 N          61.1552   86.5180   12.4009 N.ar    1  UNL1       -0.2280
     31 C          61.9632   85.6133   11.5186 C.ar    1  UNL1        0.0786
     32 C          62.7468   84.4150   11.9659 C.3     1  UNL1        0.0538
     33 C          61.8502   86.1173   10.1103 C.ar    1  UNL1        0.0963
     34 C          60.8616   85.1378    6.9901 C.3     1  UNL1        0.2525
     35 O          59.8487   86.0034    7.6791 O.3     1  UNL1       -0.4700
@<TRIPOS>BOND
     1    34    35    1
     2    35    22    1
     3    22    23   ar
     4    23    24   ar
     5    24     1    1
     6     1     2    2
     7     2     3    1
     8     3     4    1
     9     4     5    1
    10     5     6    1
    11     6     7    1
    12     7     8    2
    13     8     9    1
    14     9    10    1
    15    10    13    1
    16    13    14   ar
    17    14    15   ar
    18    15    16    1
    19    15    17   ar
    20    17    18    1
    21    17    19   ar
    22    19    20    1
    23    19    21   ar
    24    10    11    1
    25    11    12    1
    26    24    25   ar
    27    25    26   ar
    28    26    27   ar
    29    27    28    1
    30    28    29   ar
    31    29    30   ar
    32    30    31   ar
    33    31    32    1
    34    31    33   ar
    35    27    22   ar
    36    33    28   ar
    37     7     2    1
    38    21    13   ar
    39    11     6    1
@<TRIPOS>MOLECULE
*****
 35 39 0 0 0
SMALL
GASTEIGER

@<TRIPOS>ATOM
      1 C          63.4860   86.2178   13.5310 C.2     1  UNL1        0.0033
      2 C          63.0119   87.1253   12.4347 C.2     1  UNL1        0.0641
      3 C          61.9860   86.6426   11.4526 C.3     1  UNL1        0.0383
      4 C          61.5120   87.5500   10.3564 C.3     1  UNL1        0.0557
      5 C          62.0639   88.9401   10.2421 C.3     1  UNL1        0.2028
      6 N          63.0898   89.4228   11.2242 N.pl3   1  UNL1       -0.1873
      7 C          63.5638   88.5154   12.3205 C.2     1  UNL1        0.3653
      8 N          64.5898   88.9980   13.3026 N.2     1  UNL1        0.1549
      9 O          65.1417   90.3881   13.1884 O.2     1  UNL1       -0.2751
     10 C          64.6676   91.2956   12.0920 C.3     1  UNL1        0.2886
     11 C          63.6417   90.8129   11.1100 C.3     1  UNL1        0.2096
     12 C          63.1677   91.7203   10.0137 C.3     1  UNL1        0.0552
     13 C          65.2195   92.6857   11.9778 C.ar    1  UNL1        0.0310
     14 C          65.1272   93.4246   10.6758 C.ar    1  UNL1        0.0316
     15 C          65.6791   94.8147   10.5616 C.ar    1  UNL1        0.1694
     16 F          65.5869   95.5536    9.2595 F       1  UNL1       -0.2017
     17 C          66.3232   95.4659   11.7494 C.ar    1  UNL1        0.1946
     18 F          66.8751   96.8560   11.6352 F       1  UNL1       -0.1994
     19 C          66.4155   94.7269   13.0516 C.ar    1  UNL1        0.1694
     20 F          67.0596   95.3781   14.2394 F       1  UNL1       -0.2017
     21 C          65.8636   93.3368   13.1658 C.ar    1  UNL1        0.0316
     22 C          62.5518   82.4680   12.6276 C.ar    1  UNL1        0.1547
     23 C          63.1037   83.8581   12.5134 C.ar    1  UNL1        0.0384
     24 C          62.9341   84.8277   13.6452 C.ar    1  UNL1        0.0030
     25 C          62.2127   84.4072   14.8913 C.ar    1  UNL1        0.0017
     26 C          61.6608   83.0171   15.0056 C.ar    1  UNL1        0.0206
     27 C          61.8304   82.0475   13.8736 C.ar    1  UNL1        0.0994
     28 N          61.2785   80.6574   13.9879 N.ar    1  UNL1       -0.2839
     29 C          62.0527   79.3844   13.8147 C.ar    1  UNL1        0.1826
     30 N          61.1082   78.2365   14.0151 N.ar    1  UNL1       -0.2280
     31 C          59.7502   78.8000   14.3121 C.ar    1  UNL1        0.0786
     32 C          58.5055   78.0067   14.5791 C.3     1  UNL1        0.0538
     33 C          59.8555   80.2962   14.2953 C.ar    1  UNL1        0.0963
     34 C          63.7107   81.7844   10.4050 C.3     1  UNL1        0.2525
     35 O          62.7214   81.4984   11.4957 O.3     1  UNL1       -0.4700
@<TRIPOS>BOND
     1    34    35    1
     2    35    22    1
     3    22    23   ar
     4    23    24   ar
     5    24     1    1
     6     1     2    2
     7     2     3    1
     8     3     4    1
     9     4     5    1
    10     5     6    1
    11     6     7    1
    12     7     8    2
    13     8     9    1
    14     9    10    1
    15    10    13    1
    16    13    14   ar
    17    14    15   ar
    18    15    16    1
    19    15    17   ar
    20    17    18    1
    21    17    19   ar
    22    19    20    1
    23    19    21   ar
    24    10    11    1
    25    11    12    1
    26    24    25   ar
    27    25    26   ar
    28    26    27   ar
    29    27    28    1
    30    28    29   ar
    31    29    30   ar
    32    30    31   ar
    33    31    32    1
    34    31    33   ar
    35    27    22   ar
    36    33    28   ar
    37     7     2    1
    38    21    13   ar
    39    11     6    1
@<TRIPOS>MOLECULE
*****
 35 39 0 0 0
SMALL
GASTEIGER

@<TRIPOS>ATOM
      1 C          60.5042   88.9296    6.9875 C.2     1  UNL1        0.0033
      2 C          61.2713   89.2058    8.2466 C.2     1  UNL1        0.0641
      3 C          61.8371   90.5725    8.4956 C.3     1  UNL1        0.0383
      4 C          62.6041   90.8486    9.7547 C.3     1  UNL1        0.0557
      5 C          62.8053   89.7581   10.7648 C.3     1  UNL1        0.2028
      6 N          62.2395   88.3914   10.5158 N.pl3   1  UNL1       -0.1873
      7 C          61.4725   88.1153    9.2567 C.2     1  UNL1        0.3653
      8 N          60.9066   86.7486    9.0076 N.2     1  UNL1        0.1549
      9 O          61.1078   85.6580   10.0177 O.2     1  UNL1       -0.2751
     10 C          61.8749   85.9342   11.2769 C.3     1  UNL1        0.2886
     11 C          62.4407   87.3009   11.5259 C.3     1  UNL1        0.2096
     12 C          63.2077   87.5770   12.7850 C.3     1  UNL1        0.0552
     13 C          62.0761   84.8437   12.2869 C.ar    1  UNL1        0.0310
     14 C          62.0367   85.1620   13.7522 C.ar    1  UNL1        0.0316
     15 C          62.2379   84.0715   14.7623 C.ar    1  UNL1        0.1694
     16 F          62.1986   84.3898   16.2276 F       1  UNL1       -0.2017
     17 C          62.4785   82.6626   14.3071 C.ar    1  UNL1        0.1946
     18 F          62.6797   81.5721   15.3172 F       1  UNL1       -0.1994
     19 C          62.5179   82.3443   12.8418 C.ar    1  UNL1        0.1694
     20 F          62.7585   80.9354   12.3866 F       1  UNL1       -0.2017
     21 C          62.3167   83.4348   11.8317 C.ar    1  UNL1        0.0316
     22 C          61.2594   91.5942    4.1450 C.ar    1  UNL1        0.1547
     23 C          61.4606   90.5037    5.1551 C.ar    1  UNL1        0.0384
     24 C          60.3030   90.0201    5.9774 C.ar    1  UNL1        0.0030
     25 C          58.9442   90.6272    5.7896 C.ar    1  UNL1        0.0017
     26 C          58.7430   91.7177    4.7796 C.ar    1  UNL1        0.0206
     27 C          59.9006   92.2012    3.9572 C.ar    1  UNL1        0.0994
     28 N          59.6994   93.2917    2.9471 N.ar    1  UNL1       -0.2839
     29 C          59.9841   94.7497    3.1552 C.ar    1  UNL1        0.1826
     30 N          59.6388   95.4748    1.8883 N.ar    1  UNL1       -0.2280
     31 C          59.1407   94.4650    0.8973 C.ar    1  UNL1        0.0786
     32 C          58.6851   94.7537   -0.5024 C.3     1  UNL1        0.0538
     33 C          59.1781   93.1158    1.5517 C.ar    1  UNL1        0.0963
     34 C          63.5388   91.1416    2.9834 C.3     1  UNL1        0.2525
     35 O          62.4170   92.0777    3.3227 O.3     1  UNL1       -0.4700
@<TRIPOS>BOND
     1    34    35    1
     2    35    22    1
     3    22    23   ar
     4    23    24   ar
     5    24     1    1
     6     1     2    2
     7     2     3    1
     8     3     4    1
     9     4     5    1
    10     5     6    1
    11     6     7    1
    12     7     8    2
    13     8     9    1
    14     9    10    1
    15    10    13    1
    16    13    14   ar
    17    14    15   ar
    18    15    16    1
    19    15    17   ar
    20    17    18    1
    21    17    19   ar
    22    19    20    1
    23    19    21   ar
    24    10    11    1
    25    11    12    1
    26    24    25   ar
    27    25    26   ar
    28    26    27   ar
    29    27    28    1
    30    28    29   ar
    31    29    30   ar
    32    30    31   ar
    33    31    32    1
    34    31    33   ar
    35    27    22   ar
    36    33    28   ar
    37     7     2    1
    38    21    13   ar
    39    11     6    1
@<TRIPOS>MOLECULE
*****
 35 39 0 0 0
SMALL
GASTEIGER

@<TRIPOS>ATOM
      1 C          60.5330   88.8351    7.0443 C.2     1  UNL1        0.0033
      2 C          61.2887   89.1114    8.3103 C.2     1  UNL1        0.0641
      3 C          61.8373   90.4826    8.5722 C.3     1  UNL1        0.0383
      4 C          62.5930   90.7589    9.8382 C.3     1  UNL1        0.0557
      5 C          62.8000   89.6639   10.8422 C.3     1  UNL1        0.2028
      6 N          62.2514   88.2926   10.5803 N.pl3   1  UNL1       -0.1873
      7 C          61.4957   88.0164    9.3144 C.2     1  UNL1        0.3653
      8 N          60.9470   86.6451    9.0524 N.2     1  UNL1        0.1549
      9 O          61.1541   85.5501   10.0564 O.2     1  UNL1       -0.2751
     10 C          61.9098   85.8263   11.3224 C.3     1  UNL1        0.2886
     11 C          62.4584   87.1976   11.5843 C.3     1  UNL1        0.2096
     12 C          63.2141   87.4738   12.8503 C.3     1  UNL1        0.0552
     13 C          62.1168   84.7313   12.3265 C.ar    1  UNL1        0.0310
     14 C          62.0784   85.0418   13.7934 C.ar    1  UNL1        0.0316
     15 C          62.2854   83.9468   14.7975 C.ar    1  UNL1        0.1694
     16 F          62.2471   84.2572   16.2645 F       1  UNL1       -0.2017
     17 C          62.5309   82.5413   14.3345 C.ar    1  UNL1        0.1946
     18 F          62.7379   81.4463   15.3385 F       1  UNL1       -0.1994
     19 C          62.5693   82.2308   12.8674 C.ar    1  UNL1        0.1694
     20 F          62.8147   80.8253   12.4045 F       1  UNL1       -0.2017
     21 C          62.3622   83.3258   11.8634 C.ar    1  UNL1        0.0316
     22 C          58.7579   91.6290    4.8550 C.ar    1  UNL1        0.1547
     23 C          58.9649   90.5340    5.8591 C.ar    1  UNL1        0.0384
     24 C          60.3260   89.9301    6.0403 C.ar    1  UNL1        0.0030
     25 C          61.4800   90.4213    5.2175 C.ar    1  UNL1        0.0017
     26 C          61.2730   91.5163    4.2135 C.ar    1  UNL1        0.0206
     27 C          59.9119   92.1202    4.0323 C.ar    1  UNL1        0.0994
     28 N          59.7049   93.2152    3.0282 N.ar    1  UNL1       -0.2839
     29 C          59.9235   94.6803    3.2638 C.ar    1  UNL1        0.1826
     30 N          59.5966   95.4080    1.9935 N.ar    1  UNL1       -0.2280
     31 C          59.1759   94.3925    0.9728 C.ar    1  UNL1        0.0786
     32 C          58.7612   94.6815   -0.4394 C.3     1  UNL1        0.0538
     33 C          59.2428   93.0373    1.6123 C.ar    1  UNL1        0.0963
     34 C          56.1703   91.4029    4.9119 C.3     1  UNL1        0.2525
     35 O          57.3968   92.2329    4.6738 O.3     1  UNL1       -0.4700
@<TRIPOS>BOND
     1    34    35    1
     2    35    22    1
     3    22    23   ar
     4    23    24   ar
     5    24     1    1
     6     1     2    2
     7     2     3    1
     8     3     4    1
     9     4     5    1
    10     5     6    1
    11     6     7    1
    12     7     8    2
    13     8     9    1
    14     9    10    1
    15    10    13    1
    16    13    14   ar
    17    14    15   ar
    18    15    16    1
    19    15    17   ar
    20    17    18    1
    21    17    19   ar
    22    19    20    1
    23    19    21   ar
    24    10    11    1
    25    11    12    1
    26    24    25   ar
    27    25    26   ar
    28    26    27   ar
    29    27    28    1
    30    28    29   ar
    31    29    30   ar
    32    30    31   ar
    33    31    32    1
    34    31    33   ar
    35    27    22   ar
    36    33    28   ar
    37     7     2    1
    38    21    13   ar
    39    11     6    1
