@<TRIPOS>MOLECULE
*****
 38 43 0 0 0
SMALL
GASTEIGER

@<TRIPOS>ATOM
      1 C          62.1244   85.1767   10.4005 C.2     1  UNL1       -0.0160
      2 C          62.4572   85.7058    9.0370 C.2     1  UNL1       -0.0038
      3 C          61.9032   87.0258    8.5889 C.2     1  UNL1        0.0025
      4 C          61.0164   87.8167    9.5046 C.2     1  UNL1        0.0350
      5 C          60.3282   89.1393    9.3399 C.2     1  UNL1        0.1040
      6 N          59.5700   89.4275   10.6016 N.2     1  UNL1       -0.1483
      7 N          59.7897   88.2831   11.5461 N.2     1  UNL1       -0.1520
      8 C          60.6837   87.2875   10.8680 C.2     1  UNL1        0.0864
      9 C          61.2376   85.9675   11.3161 C.3     1  UNL1        0.0739
     10 C          63.9852   87.3024   14.0323 C.ar    1  UNL1        0.1388
     11 C          64.8108   86.7663   15.1640 C.ar    1  UNL1        0.0382
     12 C          65.1464   85.3054   15.2213 C.ar    1  UNL1        0.0178
     13 C          64.6565   84.3807   14.1467 C.ar    1  UNL1        0.0508
     14 C          63.8309   84.9167   13.0149 C.ar    1  UNL1        0.0209
     15 C          63.4952   86.3776   12.9577 C.ar    1  UNL1        0.0383
     16 C          63.4910   83.7725   12.1065 C.2     1  UNL1        0.0547
     17 C          62.6783   83.8567   10.8486 C.2     1  UNL1        0.0007
     18 C          64.1066   82.5292   12.6769 C.2     1  UNL1        0.2495
     19 O          64.0175   81.1518   12.0895 O.2     1  UNL1       -0.2698
     20 N          64.8269   82.9051   13.9378 N.am    1  UNL1       -0.2804
     21 H          65.3242   82.2911   14.5252 H       1  UNL1        0.1552
     22 C          63.3453   89.4118   12.6572 C.3     1  UNL1        0.2525
     23 O          63.6495   88.7632   13.9750 O.3     1  UNL1       -0.4714
     24 C          60.3877   90.0191    8.1264 C.2     1  UNL1        0.0210
     25 C          59.4836   89.7502    6.9601 C.2     1  UNL1        0.0031
     26 C          59.5431   90.6299    5.7466 C.ar    1  UNL1        0.0193
     27 C          60.8582   90.8931    5.0748 C.ar    1  UNL1        0.0044
     28 C          60.9177   91.7728    3.8613 C.ar    1  UNL1        0.0343
     29 C          59.6620   92.3894    3.3196 C.ar    1  UNL1        0.1318
     30 N          58.3470   92.1263    3.9915 N.ar    1  UNL1       -0.2292
     31 C          58.2875   91.2466    5.2050 C.ar    1  UNL1        0.1003
     32 N          59.7215   93.2691    2.1062 N.pl3   1  UNL1       -0.2904
     33 C          59.0492   92.8408    0.8356 C.3     1  UNL1        0.1095
     34 C          59.1086   93.7205   -0.3779 C.3     1  UNL1        0.0939
     35 N          59.8405   95.0286   -0.3208 N.3     1  UNL1       -0.2686
     36 C          59.9000   95.9083   -1.5342 C.3     1  UNL1        0.0897
     37 C          60.5128   95.4570    0.9499 C.3     1  UNL1        0.0939
     38 C          60.4534   94.5772    2.1633 C.3     1  UNL1        0.1095
@<TRIPOS>BOND
     1    22    23    1
     2    23    10    1
     3    10    11   ar
     4    11    12   ar
     5    12    13   ar
     6    13    14   ar
     7    14    15   ar
     8    14    16    1
     9    16    17    2
    10    17     1    1
    11     1     2    2
    12     2     3    1
    13     3     4    2
    14     4     5    1
    15     5    24    1
    16    24    25    2
    17    25    26    1
    18    26    27   ar
    19    27    28   ar
    20    28    29   ar
    21    29    32    1
    22    32    33    1
    23    33    34    1
    24    34    35    1
    25    35    36    1
    26    35    37    1
    27    37    38    1
    28    29    30   ar
    29    30    31   ar
    30     5     6    2
    31     6     7    1
    32     7     8    2
    33     8     9    1
    34    16    18    1
    35    18    19    2
    36    18    20   am
    37    15    10   ar
    38     9     1    1
    39    20    13    1
    40     8     4    1
    41    31    26   ar
    42    38    32    1
    43    20    21    1
@<TRIPOS>MOLECULE
*****
 38 43 0 0 0
SMALL
GASTEIGER

@<TRIPOS>ATOM
      1 C          62.0348   87.6386   11.7484 C.2     1  UNL1       -0.0160
      2 C          62.7686   88.6392   10.9056 C.2     1  UNL1       -0.0038
      3 C          62.1996   89.0692    9.5859 C.2     1  UNL1        0.0025
      4 C          60.8969   88.4985    9.1092 C.2     1  UNL1        0.0350
      5 C          60.0959   88.7305    7.8623 C.2     1  UNL1        0.1040
      6 N          58.8672   87.8732    7.9345 N.2     1  UNL1       -0.1483
      7 N          58.9087   87.1114    9.2260 N.2     1  UNL1       -0.1520
      8 C          60.1632   87.4979    9.9520 C.2     1  UNL1        0.0864
      9 C          60.7322   87.0679   11.2716 C.3     1  UNL1        0.0739
     10 C          63.4634   83.7469    9.7523 C.ar    1  UNL1        0.1388
     11 C          64.2060   82.5720   10.3164 C.ar    1  UNL1        0.0382
     12 C          64.5994   82.5581   11.7638 C.ar    1  UNL1        0.0178
     13 C          64.2501   83.7189   12.6472 C.ar    1  UNL1        0.0508
     14 C          63.5075   84.8937   12.0831 C.ar    1  UNL1        0.0209
     15 C          63.1141   84.9077   10.6357 C.ar    1  UNL1        0.0383
     16 C          63.3022   85.8866   13.1887 C.2     1  UNL1        0.0547
     17 C          62.6037   87.2086   13.0680 C.2     1  UNL1        0.0007
     18 C          63.9180   85.3254   14.4360 C.2     1  UNL1        0.2495
     19 O          63.9434   85.9875   15.7817 O.2     1  UNL1       -0.2698
     20 N          64.5038   83.9857   14.1013 N.am    1  UNL1       -0.2804
     21 H          64.9726   83.3866   14.7263 H       1  UNL1        0.1552
     22 C          62.7061   85.0547    7.6390 C.3     1  UNL1        0.2525
     23 O          63.0700   83.7608    8.3049 O.3     1  UNL1       -0.4714
     24 C          60.4599   89.6571    6.7402 C.2     1  UNL1        0.0210
     25 C          59.3827   90.2794    5.9022 C.2     1  UNL1        0.0031
     26 C          59.7465   91.2060    4.7802 C.ar    1  UNL1        0.0193
     27 C          61.1773   91.3358    4.3487 C.ar    1  UNL1        0.0044
     28 C          61.5412   92.2624    3.2267 C.ar    1  UNL1        0.0343
     29 C          60.4743   93.0592    2.5360 C.ar    1  UNL1        0.1318
     30 N          59.0435   92.9294    2.9675 N.ar    1  UNL1       -0.2292
     31 C          58.6797   92.0028    4.0895 C.ar    1  UNL1        0.1003
     32 N          60.8382   93.9858    1.4140 N.pl3   1  UNL1       -0.2904
     33 C          59.8924   95.0758    1.0047 C.3     1  UNL1        0.1095
     34 C          60.2563   96.0024   -0.1173 C.3     1  UNL1        0.0939
     35 N          61.5660   95.8390   -0.8301 N.3     1  UNL1       -0.2686
     36 C          61.9298   96.7656   -1.9521 C.3     1  UNL1        0.0897
     37 C          62.5118   94.7490   -0.4208 C.3     1  UNL1        0.0939
     38 C          62.1479   93.8224    0.7012 C.3     1  UNL1        0.1095
@<TRIPOS>BOND
     1    22    23    1
     2    23    10    1
     3    10    11   ar
     4    11    12   ar
     5    12    13   ar
     6    13    14   ar
     7    14    15   ar
     8    14    16    1
     9    16    17    2
    10    17     1    1
    11     1     2    2
    12     2     3    1
    13     3     4    2
    14     4     5    1
    15     5    24    1
    16    24    25    2
    17    25    26    1
    18    26    27   ar
    19    27    28   ar
    20    28    29   ar
    21    29    32    1
    22    32    33    1
    23    33    34    1
    24    34    35    1
    25    35    36    1
    26    35    37    1
    27    37    38    1
    28    29    30   ar
    29    30    31   ar
    30     5     6    2
    31     6     7    1
    32     7     8    2
    33     8     9    1
    34    16    18    1
    35    18    19    2
    36    18    20   am
    37    15    10   ar
    38     9     1    1
    39    20    13    1
    40     8     4    1
    41    31    26   ar
    42    38    32    1
    43    20    21    1
@<TRIPOS>MOLECULE
*****
 38 43 0 0 0
SMALL
GASTEIGER

@<TRIPOS>ATOM
      1 C          62.0615   85.7425   10.4995 C.2     1  UNL1       -0.0160
      2 C          62.9433   86.5412    9.5860 C.2     1  UNL1       -0.0038
      3 C          62.3335   87.4564    8.5659 C.2     1  UNL1        0.0025
      4 C          60.8417   87.5728    8.4594 C.2     1  UNL1        0.0350
      5 C          59.9603   88.3862    7.5584 C.2     1  UNL1        0.1040
      6 N          58.5338   88.0901    7.9152 N.2     1  UNL1       -0.1483
      7 N          58.5335   87.0939    9.0366 N.2     1  UNL1       -0.1520
      8 C          59.9600   86.7742    9.3729 C.2     1  UNL1        0.0864
      9 C          60.5698   85.8590   10.3930 C.3     1  UNL1        0.0739
     10 C          63.3698   89.4464   12.8953 C.ar    1  UNL1        0.1388
     11 C          64.1172   89.5613   14.1908 C.ar    1  UNL1        0.0382
     12 C          64.5613   88.3237   14.9128 C.ar    1  UNL1        0.0178
     13 C          64.2580   86.9713   14.3393 C.ar    1  UNL1        0.0508
     14 C          63.5106   86.8564   13.0439 C.ar    1  UNL1        0.0209
     15 C          63.0665   88.0939   12.3219 C.ar    1  UNL1        0.0383
     16 C          63.3570   85.3987   12.7251 C.2     1  UNL1        0.0547
     17 C          62.6713   84.8273   11.5195 C.2     1  UNL1        0.0007
     18 C          64.0094   84.6127   13.8235 C.2     1  UNL1        0.2495
     19 O          64.0907   83.1173   13.9093 O.2     1  UNL1       -0.2698
     20 N          64.5663   85.5846   14.8212 N.am    1  UNL1       -0.2804
     21 H          65.0493   85.3531   15.6472 H       1  UNL1        0.1552
     22 C          62.3200   90.5774   10.8053 C.3     1  UNL1        0.2525
     23 O          62.9257   90.6839   12.1734 O.3     1  UNL1       -0.4714
     24 C          60.4241   89.3298    6.4887 C.2     1  UNL1        0.0210
     25 C          59.4438   90.2503    5.8240 C.2     1  UNL1        0.0031
     26 C          59.9075   91.1939    4.7543 C.ar    1  UNL1        0.0193
     27 C          61.3199   91.1247    4.2539 C.ar    1  UNL1        0.0044
     28 C          61.7837   92.0684    3.1841 C.ar    1  UNL1        0.0343
     29 C          60.8350   93.0813    2.6147 C.ar    1  UNL1        0.1318
     30 N          59.4226   93.1505    3.1151 N.ar    1  UNL1       -0.2292
     31 C          58.9589   92.2068    4.1848 C.ar    1  UNL1        0.1003
     32 N          61.2987   94.0250    1.5449 N.pl3   1  UNL1       -0.2904
     33 C          62.6881   93.9074    0.9919 C.3     1  UNL1        0.1095
     34 C          63.1519   94.8511   -0.0779 C.3     1  UNL1        0.0939
     35 N          62.2262   95.9123   -0.5946 N.3     1  UNL1       -0.2686
     36 C          62.6899   96.8559   -1.6644 C.3     1  UNL1        0.0897
     37 C          60.8368   96.0298   -0.0416 C.3     1  UNL1        0.0939
     38 C          60.3731   95.0861    1.0281 C.3     1  UNL1        0.1095
@<TRIPOS>BOND
     1    22    23    1
     2    23    10    1
     3    10    11   ar
     4    11    12   ar
     5    12    13   ar
     6    13    14   ar
     7    14    15   ar
     8    14    16    1
     9    16    17    2
    10    17     1    1
    11     1     2    2
    12     2     3    1
    13     3     4    2
    14     4     5    1
    15     5    24    1
    16    24    25    2
    17    25    26    1
    18    26    27   ar
    19    27    28   ar
    20    28    29   ar
    21    29    32    1
    22    32    33    1
    23    33    34    1
    24    34    35    1
    25    35    36    1
    26    35    37    1
    27    37    38    1
    28    29    30   ar
    29    30    31   ar
    30     5     6    2
    31     6     7    1
    32     7     8    2
    33     8     9    1
    34    16    18    1
    35    18    19    2
    36    18    20   am
    37    15    10   ar
    38     9     1    1
    39    20    13    1
    40     8     4    1
    41    31    26   ar
    42    38    32    1
    43    20    21    1
