@<TRIPOS>MOLECULE
*****
 26 27 0 0 0
SMALL
GASTEIGER

@<TRIPOS>ATOM
      1 C          62.4895   89.5679   10.8383 C.ar    1  UNL1        0.0011
      2 C          63.2328   90.6518   10.1154 C.ar    1  UNL1        0.0032
      3 C          64.0494   91.6449   10.8880 C.ar    1  UNL1        0.0376
      4 C          64.1228   91.5540   12.3835 C.ar    1  UNL1        0.1481
      5 C          63.3795   90.4700   13.1064 C.ar    1  UNL1        0.1023
      6 C          62.5628   89.4769   12.3337 C.ar    1  UNL1        0.0133
      7 C          59.8638   88.0580    8.2738 C.ar    1  UNL1        0.2250
      8 C          60.6805   89.0510    9.0465 C.ar    1  UNL1        0.0577
      9 C          61.6728   88.5748   10.0656 C.ar    1  UNL1        0.0062
     10 C          61.8483   87.1057   10.3122 C.ar    1  UNL1        0.0209
     11 C          61.0317   86.1128    9.5395 C.ar    1  UNL1        0.1021
     12 N          60.0394   86.5889    8.5204 N.ar    1  UNL1       -0.2101
     13 C          59.2222   89.6702    6.3402 C.3     1  UNL1        0.2542
     14 O          58.8716   88.5342    7.2547 O.3     1  UNL1       -0.4561
     15 C          63.4529   90.3791   14.6018 C.1     1  UNL1        0.1035
     16 N          63.5262   90.2881   16.0972 N.1     1  UNL1       -0.1907
     17 O          64.9395   92.5470   13.1561 O.3     1  UNL1       -0.4733
     18 C          66.2918   92.9584   12.6540 C.3     1  UNL1        0.2207
     19 C          67.5043   92.1551   13.0206 C.3     1  UNL1        0.0951
     20 N          68.5439   91.8503   11.9831 N.3     1  UNL1       -0.3192
     21 H          69.2924   91.2993   12.4034 H       1  UNL1        0.1189
     22 H          68.9271   92.7227   11.6193 H       1  UNL1        0.1189
     23 C          67.6772   91.6565   14.4247 C.3     1  UNL1        0.0193
     24 C          67.5725   92.6105   15.5776 C.3     1  UNL1        0.0014
     25 C          66.3298   92.6389   16.4171 C.3     1  UNL1        0.0000
     26 C          68.7105   93.5361   15.8909 C.3     1  UNL1        0.0000
@<TRIPOS>BOND
     1    13    14    1
     2    14     7    1
     3     7     8   ar
     4     8     9   ar
     5     9     1    1
     6     1     2   ar
     7     2     3   ar
     8     3     4   ar
     9     4    17    1
    10    17    18    1
    11    18    19    1
    12    19    20    1
    13    19    23    1
    14    23    24    1
    15    24    25    1
    16    24    26    1
    17     4     5   ar
    18     5    15    1
    19    15    16    3
    20     5     6   ar
    21     9    10   ar
    22    10    11   ar
    23    11    12   ar
    24    12     7   ar
    25     6     1   ar
    26    20    21    1
    27    20    22    1
@<TRIPOS>MOLECULE
*****
 26 27 0 0 0
SMALL
GASTEIGER

@<TRIPOS>ATOM
      1 C          64.3163   89.6061   14.2987 C.ar    1  UNL1        0.0011
      2 C          63.5432   89.8757   13.0418 C.ar    1  UNL1        0.0032
      3 C          63.8846   91.0631   12.1914 C.ar    1  UNL1        0.0376
      4 C          64.9992   91.9811   12.5977 C.ar    1  UNL1        0.1481
      5 C          65.7724   91.7115   13.8546 C.ar    1  UNL1        0.1023
      6 C          65.4308   90.5240   14.7050 C.ar    1  UNL1        0.0133
      7 C          64.0310   85.8536   15.5586 C.ar    1  UNL1        0.2250
      8 C          64.3724   87.0411   14.7082 C.ar    1  UNL1        0.0577
      9 C          63.9748   88.4186   15.1491 C.ar    1  UNL1        0.0062
     10 C          63.2357   88.6086   16.4405 C.ar    1  UNL1        0.0209
     11 C          62.8942   87.4211   17.2909 C.ar    1  UNL1        0.1021
     12 N          63.2918   86.0436   16.8499 N.ar    1  UNL1       -0.2101
     13 C          64.4400   84.1299   13.6582 C.3     1  UNL1        0.2542
     14 O          64.4286   84.4761   15.1177 O.3     1  UNL1       -0.4561
     15 C          66.8869   92.6294   14.2609 C.1     1  UNL1        0.1035
     16 N          68.0015   93.5473   14.6673 N.1     1  UNL1       -0.1907
     17 O          65.3407   93.1685   11.7473 O.3     1  UNL1       -0.4733
     18 C          65.8634   92.9689   10.3555 C.3     1  UNL1        0.2207
     19 C          67.3123   93.2154   10.0560 C.3     1  UNL1        0.0951
     20 N          68.3700   92.4182   10.7603 N.3     1  UNL1       -0.3192
     21 H          69.2909   92.7151   10.4375 H       1  UNL1        0.1189
     22 H          68.2413   91.4272   10.5560 H       1  UNL1        0.1189
     23 C          67.7037   94.2590    9.0522 C.3     1  UNL1        0.0193
     24 C          67.2583   95.6797    9.2349 C.3     1  UNL1        0.0014
     25 C          66.8176   96.1596   10.5860 C.3     1  UNL1        0.0000
     26 C          67.2537   96.6204    8.0666 C.3     1  UNL1        0.0000
@<TRIPOS>BOND
     1    13    14    1
     2    14     7    1
     3     7     8   ar
     4     8     9   ar
     5     9     1    1
     6     1     2   ar
     7     2     3   ar
     8     3     4   ar
     9     4    17    1
    10    17    18    1
    11    18    19    1
    12    19    20    1
    13    19    23    1
    14    23    24    1
    15    24    25    1
    16    24    26    1
    17     4     5   ar
    18     5    15    1
    19    15    16    3
    20     5     6   ar
    21     9    10   ar
    22    10    11   ar
    23    11    12   ar
    24    12     7   ar
    25     6     1   ar
    26    20    21    1
    27    20    22    1
@<TRIPOS>MOLECULE
*****
 26 27 0 0 0
SMALL
GASTEIGER

@<TRIPOS>ATOM
      1 C          64.6470   91.9067   10.9758 C.ar    1  UNL1        0.0011
      2 C          63.5844   91.5902    9.9656 C.ar    1  UNL1        0.0032
      3 C          62.3810   90.7905   10.3684 C.ar    1  UNL1        0.0376
      4 C          62.2403   90.3072   11.7814 C.ar    1  UNL1        0.1481
      5 C          63.3029   90.6236   12.7917 C.ar    1  UNL1        0.1023
      6 C          64.5064   91.4234   12.3888 C.ar    1  UNL1        0.0133
      7 C          66.9106   94.9628    9.8415 C.ar    1  UNL1        0.2250
      8 C          65.7073   94.1630   10.2443 C.ar    1  UNL1        0.0577
      9 C          65.8505   92.7065   10.5730 C.ar    1  UNL1        0.0062
     10 C          67.1970   92.0498   10.4989 C.ar    1  UNL1        0.0209
     11 C          68.4003   92.8496   10.0960 C.ar    1  UNL1        0.1021
     12 N          68.2571   94.3061    9.7674 N.ar    1  UNL1       -0.2101
     13 C          66.6310   96.8560    8.0843 C.3     1  UNL1        0.2542
     14 O          66.7674   96.4193    9.5129 O.3     1  UNL1       -0.4561
     15 C          63.1623   90.1404   14.2047 C.1     1  UNL1        0.1035
     16 N          63.0216   89.6571   15.6177 N.1     1  UNL1       -0.1907
     17 O          61.0369   89.5074   12.1842 O.3     1  UNL1       -0.4733
     18 C          60.4397   88.5178   11.2282 C.3     1  UNL1        0.2207
     19 C          61.2237   87.3080   10.8140 C.3     1  UNL1        0.0951
     20 N          61.2621   86.0992   11.7014 N.3     1  UNL1       -0.3192
     21 H          61.8370   85.3769   11.2675 H       1  UNL1        0.1189
     22 H          60.3148   85.7451   11.8348 H       1  UNL1        0.1189
     23 C          61.9694   87.3069    9.5125 C.3     1  UNL1        0.0193
     24 C          61.7714   86.1858    8.5357 C.3     1  UNL1        0.0014
     25 C          62.9065   85.2577    8.2191 C.3     1  UNL1        0.0000
     26 C          60.4385   85.9929    7.8754 C.3     1  UNL1        0.0000
@<TRIPOS>BOND
     1    13    14    1
     2    14     7    1
     3     7     8   ar
     4     8     9   ar
     5     9     1    1
     6     1     2   ar
     7     2     3   ar
     8     3     4   ar
     9     4    17    1
    10    17    18    1
    11    18    19    1
    12    19    20    1
    13    19    23    1
    14    23    24    1
    15    24    25    1
    16    24    26    1
    17     4     5   ar
    18     5    15    1
    19    15    16    3
    20     5     6   ar
    21     9    10   ar
    22    10    11   ar
    23    11    12   ar
    24    12     7   ar
    25     6     1   ar
    26    20    21    1
    27    20    22    1
@<TRIPOS>MOLECULE
*****
 26 27 0 0 0
SMALL
GASTEIGER

@<TRIPOS>ATOM
      1 C          62.2807   88.9610   10.3855 C.ar    1  UNL1        0.0011
      2 C          62.6485   90.3051    9.8306 C.ar    1  UNL1        0.0032
      3 C          63.3600   91.3040   10.6944 C.ar    1  UNL1        0.0376
      4 C          63.7035   90.9586   12.1131 C.ar    1  UNL1        0.1481
      5 C          63.3357   89.6145   12.6680 C.ar    1  UNL1        0.1023
      6 C          62.6242   88.6156   11.8041 C.ar    1  UNL1        0.0133
      7 C          61.6249   85.8448    8.0170 C.ar    1  UNL1        0.2250
      8 C          62.3363   86.8436    8.8809 C.ar    1  UNL1        0.0577
      9 C          61.5692   87.9621    9.5216 C.ar    1  UNL1        0.0062
     10 C          60.0908   88.0818    9.2985 C.ar    1  UNL1        0.0209
     11 C          59.3794   87.0830    8.4347 C.ar    1  UNL1        0.1021
     12 N          60.1465   85.9645    7.7940 N.ar    1  UNL1       -0.2101
     13 C          62.1308   84.3613    5.9451 C.3     1  UNL1        0.2542
     14 O          62.3920   84.7263    7.3763 O.3     1  UNL1       -0.4561
     15 C          63.6792   89.2692   14.0867 C.1     1  UNL1        0.1035
     16 N          64.0228   88.9238   15.5054 N.1     1  UNL1       -0.1907
     17 O          64.4150   91.9575   12.9769 O.3     1  UNL1       -0.4733
     18 C          65.8057   92.3965   12.6262 C.3     1  UNL1        0.2207
     19 C          66.0148   93.5285   11.6646 C.3     1  UNL1        0.0951
     20 N          66.0369   94.9427   12.1643 N.3     1  UNL1       -0.3192
     21 H          66.1885   95.5779   11.3807 H       1  UNL1        0.1189
     22 H          66.7916   95.0522   12.8416 H       1  UNL1        0.1189
     23 C          66.2018   93.2464   10.2033 C.3     1  UNL1        0.0193
     24 C          67.5312   93.4971    9.5551 C.3     1  UNL1        0.0014
     25 C          67.8537   94.8553    9.0062 C.3     1  UNL1        0.0000
     26 C          68.5379   92.3896    9.4560 C.3     1  UNL1        0.0000
@<TRIPOS>BOND
     1    13    14    1
     2    14     7    1
     3     7     8   ar
     4     8     9   ar
     5     9     1    1
     6     1     2   ar
     7     2     3   ar
     8     3     4   ar
     9     4    17    1
    10    17    18    1
    11    18    19    1
    12    19    20    1
    13    19    23    1
    14    23    24    1
    15    24    25    1
    16    24    26    1
    17     4     5   ar
    18     5    15    1
    19    15    16    3
    20     5     6   ar
    21     9    10   ar
    22    10    11   ar
    23    11    12   ar
    24    12     7   ar
    25     6     1   ar
    26    20    21    1
    27    20    22    1
@<TRIPOS>MOLECULE
*****
 26 27 0 0 0
SMALL
GASTEIGER

@<TRIPOS>ATOM
      1 C          62.3857   89.5348   10.8146 C.ar    1  UNL1        0.0011
      2 C          63.1150   90.6632   10.1476 C.ar    1  UNL1        0.0032
      3 C          63.9279   91.6200   10.9684 C.ar    1  UNL1        0.0376
      4 C          64.0116   91.4485   12.4562 C.ar    1  UNL1        0.1481
      5 C          63.2822   90.3201   13.1233 C.ar    1  UNL1        0.1023
      6 C          62.4693   89.3633   12.3024 C.ar    1  UNL1        0.0133
      7 C          59.7803   88.1433    8.1641 C.ar    1  UNL1        0.2250
      8 C          60.5932   89.1000    8.9849 C.ar    1  UNL1        0.0577
      9 C          61.5728   88.5780    9.9938 C.ar    1  UNL1        0.0062
     10 C          61.7394   87.0993   10.1819 C.ar    1  UNL1        0.0209
     11 C          60.9265   86.1425    9.3611 C.ar    1  UNL1        0.1021
     12 N          59.9469   86.6646    8.3522 N.ar    1  UNL1       -0.2101
     13 C          59.2102   89.7504    6.2039 C.3     1  UNL1        0.2542
     14 O          58.8007   88.6653    7.1551 O.3     1  UNL1       -0.4561
     15 C          63.3658   90.1486   14.6110 C.1     1  UNL1        0.1035
     16 N          63.4494   89.9770   16.0988 N.1     1  UNL1       -0.1907
     17 O          64.8245   92.4053   13.2770 O.3     1  UNL1       -0.4733
     18 C          65.8922   93.2329   12.6252 C.3     1  UNL1        0.2207
     19 C          67.0071   92.5645   11.8768 C.3     1  UNL1        0.0951
     20 N          68.1902   92.0207   12.6217 N.3     1  UNL1       -0.3192
     21 H          68.8458   91.6039   11.9608 H       1  UNL1        0.1189
     22 H          67.8778   91.3109   13.2842 H       1  UNL1        0.1189
     23 C          66.9391   92.4399   10.3836 C.3     1  UNL1        0.0193
     24 C          67.9476   93.1445    9.5254 C.3     1  UNL1        0.0014
     25 C          69.1095   92.3853    8.9565 C.3     1  UNL1        0.0000
     26 C          67.7942   94.6084    9.2362 C.3     1  UNL1        0.0000
@<TRIPOS>BOND
     1    13    14    1
     2    14     7    1
     3     7     8   ar
     4     8     9   ar
     5     9     1    1
     6     1     2   ar
     7     2     3   ar
     8     3     4   ar
     9     4    17    1
    10    17    18    1
    11    18    19    1
    12    19    20    1
    13    19    23    1
    14    23    24    1
    15    24    25    1
    16    24    26    1
    17     4     5   ar
    18     5    15    1
    19    15    16    3
    20     5     6   ar
    21     9    10   ar
    22    10    11   ar
    23    11    12   ar
    24    12     7   ar
    25     6     1   ar
    26    20    21    1
    27    20    22    1
@<TRIPOS>MOLECULE
*****
 26 27 0 0 0
SMALL
GASTEIGER

@<TRIPOS>ATOM
      1 C          63.0744   90.7015   11.6983 C.ar    1  UNL1        0.0011
      2 C          63.1282   90.5772   10.2044 C.ar    1  UNL1        0.0032
      3 C          61.9638   89.9974    9.4576 C.ar    1  UNL1        0.0376
      4 C          60.7454   89.5418   10.2047 C.ar    1  UNL1        0.1481
      5 C          60.6916   89.6661   11.6986 C.ar    1  UNL1        0.1023
      6 C          61.8561   90.2460   12.4454 C.ar    1  UNL1        0.0133
      7 C          66.2275   92.9489   12.5688 C.ar    1  UNL1        0.2250
      8 C          65.0630   92.3690   11.8221 C.ar    1  UNL1        0.0577
      9 C          64.2390   91.2814   12.4451 C.ar    1  UNL1        0.0062
     10 C          64.5795   90.7737   13.8148 C.ar    1  UNL1        0.0209
     11 C          65.7440   91.3535   14.5615 C.ar    1  UNL1        0.1021
     12 N          66.5680   92.4412   13.9385 N.ar    1  UNL1       -0.2101
     13 C          66.3784   95.2172   11.3110 C.3     1  UNL1        0.2542
     14 O          67.0515   94.0365   11.9457 O.3     1  UNL1       -0.4561
     15 C          59.4733   89.2105   12.4457 C.1     1  UNL1        0.1035
     16 N          58.2550   88.7550   13.1928 N.1     1  UNL1       -0.1907
     17 O          59.5809   88.9620    9.4579 O.3     1  UNL1       -0.4733
     18 C          59.7775   88.4002    8.0811 C.3     1  UNL1        0.2207
     19 C          59.5693   86.9358    7.8317 C.3     1  UNL1        0.0951
     20 N          58.1786   86.3800    7.7455 N.3     1  UNL1       -0.3192
     21 H          58.2240   85.3757    7.5733 H       1  UNL1        0.1189
     22 H          57.6779   86.8337    6.9814 H       1  UNL1        0.1189
     23 C          60.7515   86.0272    7.6686 C.3     1  UNL1        0.0193
     24 C          61.7279   85.8573    8.7947 C.3     1  UNL1        0.0014
     25 C          63.1708   85.5727    8.4997 C.3     1  UNL1        0.0000
     26 C          61.2613   85.9720   10.2156 C.3     1  UNL1        0.0000
@<TRIPOS>BOND
     1    13    14    1
     2    14     7    1
     3     7     8   ar
     4     8     9   ar
     5     9     1    1
     6     1     2   ar
     7     2     3   ar
     8     3     4   ar
     9     4    17    1
    10    17    18    1
    11    18    19    1
    12    19    20    1
    13    19    23    1
    14    23    24    1
    15    24    25    1
    16    24    26    1
    17     4     5   ar
    18     5    15    1
    19    15    16    3
    20     5     6   ar
    21     9    10   ar
    22    10    11   ar
    23    11    12   ar
    24    12     7   ar
    25     6     1   ar
    26    20    21    1
    27    20    22    1
@<TRIPOS>MOLECULE
*****
 26 27 0 0 0
SMALL
GASTEIGER

@<TRIPOS>ATOM
      1 C          63.8203   90.7619   11.6648 C.ar    1  UNL1        0.0011
      2 C          63.8931   89.6480   12.6667 C.ar    1  UNL1        0.0032
      3 C          62.9878   88.4595   12.5340 C.ar    1  UNL1        0.0376
      4 C          62.0096   88.3848   11.3992 C.ar    1  UNL1        0.1481
      5 C          61.9367   89.4987   10.3973 C.ar    1  UNL1        0.1023
      6 C          62.8421   90.6873   10.5301 C.ar    1  UNL1        0.0133
      7 C          66.2454   93.4691   13.2584 C.ar    1  UNL1        0.2250
      8 C          65.3401   92.2806   13.1256 C.ar    1  UNL1        0.0577
      9 C          64.7256   91.9506   11.7976 C.ar    1  UNL1        0.0062
     10 C          65.0165   92.8090   10.6025 C.ar    1  UNL1        0.0209
     11 C          65.9218   93.9976   10.7354 C.ar    1  UNL1        0.1021
     12 N          66.5363   94.3276   12.0633 N.ar    1  UNL1       -0.2101
     13 C          67.0462   92.7232   15.6147 C.3     1  UNL1        0.2542
     14 O          66.8599   93.7992   14.5864 O.3     1  UNL1       -0.4561
     15 C          60.9585   89.4240    9.2626 C.1     1  UNL1        0.1035
     16 N          59.9804   89.3494    8.1279 N.1     1  UNL1       -0.1907
     17 O          61.1043   87.1962   11.2665 O.3     1  UNL1       -0.4733
     18 C          61.6772   85.8102   11.2940 C.3     1  UNL1        0.2207
     19 C          62.5148   85.3220   10.1494 C.3     1  UNL1        0.0951
     20 N          63.3785   84.1070   10.3167 N.3     1  UNL1       -0.3192
     21 H          63.8746   83.9200    9.4453 H       1  UNL1        0.1189
     22 H          62.7948   83.3051   10.5545 H       1  UNL1        0.1189
     23 C          62.4887   86.0488    8.8375 C.3     1  UNL1        0.0193
     24 C          61.5782   85.5830    7.7400 C.3     1  UNL1        0.0014
     25 C          62.1202   84.7431    6.6217 C.3     1  UNL1        0.0000
     26 C          60.1258   85.9572    7.7610 C.3     1  UNL1        0.0000
@<TRIPOS>BOND
     1    13    14    1
     2    14     7    1
     3     7     8   ar
     4     8     9   ar
     5     9     1    1
     6     1     2   ar
     7     2     3   ar
     8     3     4   ar
     9     4    17    1
    10    17    18    1
    11    18    19    1
    12    19    20    1
    13    19    23    1
    14    23    24    1
    15    24    25    1
    16    24    26    1
    17     4     5   ar
    18     5    15    1
    19    15    16    3
    20     5     6   ar
    21     9    10   ar
    22    10    11   ar
    23    11    12   ar
    24    12     7   ar
    25     6     1   ar
    26    20    21    1
    27    20    22    1
@<TRIPOS>MOLECULE
*****
 26 27 0 0 0
SMALL
GASTEIGER

@<TRIPOS>ATOM
      1 C          63.8130   87.0738   13.6537 C.ar    1  UNL1        0.0011
      2 C          64.4692   87.9156   14.7077 C.ar    1  UNL1        0.0032
      3 C          64.5034   89.4081   14.5618 C.ar    1  UNL1        0.0376
      4 C          63.8813   90.0588   13.3619 C.ar    1  UNL1        0.1481
      5 C          63.2251   89.2171   12.3080 C.ar    1  UNL1        0.1023
      6 C          63.1909   87.7245   12.4539 C.ar    1  UNL1        0.0133
      7 C          63.4156   83.2270   12.7628 C.ar    1  UNL1        0.2250
      8 C          63.4497   84.7194   12.6169 C.ar    1  UNL1        0.0577
      9 C          63.7789   85.5813   13.7997 C.ar    1  UNL1        0.0062
     10 C          64.0738   84.9507   15.1283 C.ar    1  UNL1        0.0209
     11 C          64.0397   83.4582   15.2742 C.ar    1  UNL1        0.1021
     12 N          63.7105   82.5964   14.0914 N.ar    1  UNL1       -0.2101
     13 C          63.9520   82.4093   10.3558 C.3     1  UNL1        0.2542
     14 O          63.0864   82.3651   11.5800 O.3     1  UNL1       -0.4561
     15 C          62.6030   89.8678   11.1082 C.1     1  UNL1        0.1035
     16 N          61.9810   90.5185    9.9084 N.1     1  UNL1       -0.1907
     17 O          63.9155   91.5513   13.2161 O.3     1  UNL1       -0.4733
     18 C          64.9993   92.2013   12.4081 C.3     1  UNL1        0.2207
     19 C          66.0703   92.9976   13.0929 C.3     1  UNL1        0.0951
     20 N          66.0469   94.4962   13.0299 N.3     1  UNL1       -0.3192
     21 H          66.8430   94.8706   13.5459 H       1  UNL1        0.1189
     22 H          65.1808   94.8404   13.4443 H       1  UNL1        0.1189
     23 C          67.1646   92.2954   13.8408 C.3     1  UNL1        0.0193
     24 C          67.2151   92.3670   15.3383 C.3     1  UNL1        0.0014
     25 C          65.9470   92.5183   16.1251 C.3     1  UNL1        0.0000
     26 C          68.5337   92.2873   16.0489 C.3     1  UNL1        0.0000
@<TRIPOS>BOND
     1    13    14    1
     2    14     7    1
     3     7     8   ar
     4     8     9   ar
     5     9     1    1
     6     1     2   ar
     7     2     3   ar
     8     3     4   ar
     9     4    17    1
    10    17    18    1
    11    18    19    1
    12    19    20    1
    13    19    23    1
    14    23    24    1
    15    24    25    1
    16    24    26    1
    17     4     5   ar
    18     5    15    1
    19    15    16    3
    20     5     6   ar
    21     9    10   ar
    22    10    11   ar
    23    11    12   ar
    24    12     7   ar
    25     6     1   ar
    26    20    21    1
    27    20    22    1
@<TRIPOS>MOLECULE
*****
 26 27 0 0 0
SMALL
GASTEIGER

@<TRIPOS>ATOM
      1 C          64.4408   92.0037   11.1174 C.ar    1  UNL1        0.0011
      2 C          63.4623   91.5497   10.0751 C.ar    1  UNL1        0.0032
      3 C          62.3605   90.6009   10.4434 C.ar    1  UNL1        0.0376
      4 C          62.2371   90.1061   11.8541 C.ar    1  UNL1        0.1481
      5 C          63.2156   90.5601   12.8964 C.ar    1  UNL1        0.1023
      6 C          64.3175   91.5089   12.5280 C.ar    1  UNL1        0.0133
      7 C          67.9586   93.3704    9.8897 C.ar    1  UNL1        0.2250
      8 C          66.8568   92.4216   10.2580 C.ar    1  UNL1        0.0577
      9 C          65.5427   92.9526   10.7490 C.ar    1  UNL1        0.0062
     10 C          65.3303   94.4324   10.8716 C.ar    1  UNL1        0.0209
     11 C          66.4322   95.3812   10.5033 C.ar    1  UNL1        0.1021
     12 N          67.7463   94.8502   10.0123 N.ar    1  UNL1       -0.2101
     13 C          69.3110   91.8847    8.2423 C.3     1  UNL1        0.2542
     14 O          69.2727   92.8393    9.3987 O.3     1  UNL1       -0.4561
     15 C          63.0923   90.0653   14.3070 C.1     1  UNL1        0.1035
     16 N          62.9690   89.5705   15.7177 N.1     1  UNL1       -0.1907
     17 O          61.1353   89.1573   12.2224 O.3     1  UNL1       -0.4733
     18 C          60.6143   88.1828   11.2080 C.3     1  UNL1        0.2207
     19 C          61.4611   87.0209   10.7802 C.3     1  UNL1        0.0951
     20 N          61.6116   85.8307   11.6807 N.3     1  UNL1       -0.3192
     21 H          62.2169   85.1414   11.2348 H       1  UNL1        0.1189
     22 H          60.6953   85.4173   11.8538 H       1  UNL1        0.1189
     23 C          62.1575   87.0492    9.4520 C.3     1  UNL1        0.0193
     24 C          61.8118   86.0350    8.4022 C.3     1  UNL1        0.0014
     25 C          60.4289   85.9973    7.8223 C.3     1  UNL1        0.0000
     26 C          62.8490   85.0586    7.9323 C.3     1  UNL1        0.0000
@<TRIPOS>BOND
     1    13    14    1
     2    14     7    1
     3     7     8   ar
     4     8     9   ar
     5     9     1    1
     6     1     2   ar
     7     2     3   ar
     8     3     4   ar
     9     4    17    1
    10    17    18    1
    11    18    19    1
    12    19    20    1
    13    19    23    1
    14    23    24    1
    15    24    25    1
    16    24    26    1
    17     4     5   ar
    18     5    15    1
    19    15    16    3
    20     5     6   ar
    21     9    10   ar
    22    10    11   ar
    23    11    12   ar
    24    12     7   ar
    25     6     1   ar
    26    20    21    1
    27    20    22    1
