@<TRIPOS>MOLECULE
*****
 33 37 0 0 0
SMALL
GASTEIGER

@<TRIPOS>ATOM
      1 C          63.3418   91.6047   10.0252 C.3     1  UNL1        0.1306
      2 N          64.0212   91.5264   11.3602 N.ar    1  UNL1       -0.3216
      3 C          64.9601   92.5465   11.9328 C.ar    1  UNL1        0.0675
      4 C          65.4711   93.8518   11.3989 C.ar    1  UNL1        0.0176
      5 C          66.4222   94.6753   12.2156 C.ar    1  UNL1        0.0078
      6 C          66.8623   94.1937   13.5663 C.ar    1  UNL1        0.0754
      7 C          66.3513   92.8884   14.1002 C.ar    1  UNL1        0.2928
      8 C          65.4002   92.0648   13.2835 C.ar    1  UNL1        0.1042
      9 C          64.7333   90.7470   13.5456 C.ar    1  UNL1        0.1088
     10 N          64.7920   89.8071   14.7130 N.ar    1  UNL1       -0.2222
     11 C          63.9984   88.5344   14.6918 C.ar    1  UNL1        0.2001
     12 N          63.1461   88.2016   13.5032 N.ar    1  UNL1       -0.2075
     13 C          63.0875   89.1415   12.3357 C.ar    1  UNL1        0.1509
     14 C          63.8810   90.4143   12.3569 C.ar    1  UNL1        0.1101
     15 N          62.2352   88.8088   11.1470 N.pl3   1  UNL1       -0.2892
     16 C          62.5335   87.5876   10.3287 C.3     1  UNL1        0.1095
     17 C          61.6811   87.2549    9.1400 C.3     1  UNL1        0.0939
     18 N          60.5307   88.1433    8.7697 N.3     1  UNL1       -0.2695
     19 C          60.2324   89.3645    9.5881 C.3     1  UNL1        0.0939
     20 C          61.0847   89.6972   10.7767 C.3     1  UNL1        0.1095
     21 C          59.6784   87.8105    7.5810 C.3     1  UNL1        0.0769
     22 C          58.5956   88.7534    7.1470 C.3     1  UNL1        0.0437
     23 C          58.9031   89.8508    6.1717 C.ar    1  UNL1       -0.0184
     24 C          57.8029   90.7380    5.6695 C.ar    1  UNL1       -0.0018
     25 C          58.1105   91.8354    4.6942 C.ar    1  UNL1        0.0316
     26 C          59.5183   92.0455    4.2210 C.ar    1  UNL1        0.1674
     27 F          59.8258   93.1428    3.2457 F       1  UNL1       -0.2018
     28 C          60.6186   91.1582    4.7232 C.ar    1  UNL1        0.1671
     29 F          62.0264   91.3683    4.2501 F       1  UNL1       -0.2018
     30 C          60.3110   90.0609    5.6985 C.ar    1  UNL1        0.0277
     31 N          66.7914   92.4067   15.4509 N.pl3   1  UNL1        0.0810
     32 O          68.0785   91.6500   15.5946 O.2     1  UNL1        0.0415
     33 O          65.9443   92.6817   16.6579 O.co2   1  UNL1       -0.5760
@<TRIPOS>UNITY_ATOM_ATTR
31 1
charge 1
33 1
charge -1
@<TRIPOS>BOND
     1     1     2    1
     2     2     3   ar
     3     3     4   ar
     4     4     5   ar
     5     5     6   ar
     6     6     7   ar
     7     7    31    1
     8    31    32    2
     9    31    33    1
    10     7     8   ar
    11     8     9   ar
    12     9    10   ar
    13    10    11   ar
    14    11    12   ar
    15    12    13   ar
    16    13    15    1
    17    15    16    1
    18    16    17    1
    19    17    18    1
    20    18    21    1
    21    21    22    1
    22    22    23    1
    23    23    24   ar
    24    24    25   ar
    25    25    26   ar
    26    26    27    1
    27    26    28   ar
    28    28    29    1
    29    28    30   ar
    30    18    19    1
    31    19    20    1
    32    13    14   ar
    33    14     2   ar
    34     8     3   ar
    35    14     9   ar
    36    20    15    1
    37    30    23   ar
@<TRIPOS>MOLECULE
*****
 33 37 0 0 0
SMALL
GASTEIGER

@<TRIPOS>ATOM
      1 C          61.9616   90.4960   10.4228 C.3     1  UNL1        0.1306
      2 N          62.4479   89.4272   11.3562 N.ar    1  UNL1       -0.3216
      3 C          63.3026   89.6392   12.5705 C.ar    1  UNL1        0.0675
      4 C          63.8892   90.8772   13.1813 C.ar    1  UNL1        0.0176
      5 C          64.7210   90.7778   14.4255 C.ar    1  UNL1        0.0078
      6 C          64.9662   89.4404   15.0590 C.ar    1  UNL1        0.0754
      7 C          64.3797   88.2024   14.4481 C.ar    1  UNL1        0.2928
      8 C          63.5478   88.3018   13.2039 C.ar    1  UNL1        0.1042
      9 C          62.8447   87.2632   12.3810 C.ar    1  UNL1        0.1088
     10 N          62.7357   85.7741   12.5240 N.ar    1  UNL1       -0.2222
     11 C          61.9469   84.9804   11.5251 C.ar    1  UNL1        0.2001
     12 N          61.2671   85.6760   10.3831 N.ar    1  UNL1       -0.2075
     13 C          61.3761   87.1651   10.2401 C.ar    1  UNL1        0.1509
     14 C          62.1650   87.9588   11.2390 C.ar    1  UNL1        0.1101
     15 N          60.6964   87.8606    9.0981 N.pl3   1  UNL1       -0.2892
     16 C          60.4735   89.3430    9.1485 C.3     1  UNL1        0.1095
     17 C          59.7936   90.0386    8.0065 C.3     1  UNL1        0.0939
     18 N          59.3368   89.2516    6.8140 N.3     1  UNL1       -0.2695
     19 C          59.5597   87.7691    6.7636 C.3     1  UNL1        0.0939
     20 C          60.2395   87.0736    7.9056 C.3     1  UNL1        0.1095
     21 C          58.6570   89.9471    5.6720 C.3     1  UNL1        0.0769
     22 C          58.9526   91.3904    5.3899 C.3     1  UNL1        0.0437
     23 C          60.0095   91.7582    4.3910 C.ar    1  UNL1       -0.0184
     24 C          59.7175   92.7794    3.3320 C.ar    1  UNL1       -0.0018
     25 C          60.7744   93.1472    2.3330 C.ar    1  UNL1        0.0316
     26 C          62.1232   92.4936    2.3932 C.ar    1  UNL1        0.1674
     27 F          63.1801   92.8614    1.3943 F       1  UNL1       -0.2018
     28 C          62.4152   91.4723    3.4524 C.ar    1  UNL1        0.1671
     29 F          63.7639   90.8188    3.5126 F       1  UNL1       -0.2018
     30 C          61.3583   91.1046    4.4512 C.ar    1  UNL1        0.0277
     31 N          64.6249   86.8650   15.0815 N.pl3   1  UNL1        0.0810
     32 O          63.6161   86.2879   16.0299 O.2     1  UNL1        0.0415
     33 O          65.8789   86.1046   14.7666 O.co2   1  UNL1       -0.5760
@<TRIPOS>UNITY_ATOM_ATTR
31 1
charge 1
33 1
charge -1
@<TRIPOS>BOND
     1     1     2    1
     2     2     3   ar
     3     3     4   ar
     4     4     5   ar
     5     5     6   ar
     6     6     7   ar
     7     7    31    1
     8    31    32    2
     9    31    33    1
    10     7     8   ar
    11     8     9   ar
    12     9    10   ar
    13    10    11   ar
    14    11    12   ar
    15    12    13   ar
    16    13    15    1
    17    15    16    1
    18    16    17    1
    19    17    18    1
    20    18    21    1
    21    21    22    1
    22    22    23    1
    23    23    24   ar
    24    24    25   ar
    25    25    26   ar
    26    26    27    1
    27    26    28   ar
    28    28    29    1
    29    28    30   ar
    30    18    19    1
    31    19    20    1
    32    13    14   ar
    33    14     2   ar
    34     8     3   ar
    35    14     9   ar
    36    20    15    1
    37    30    23   ar
@<TRIPOS>MOLECULE
*****
 33 37 0 0 0
SMALL
GASTEIGER

@<TRIPOS>ATOM
      1 C          61.2471   85.4187    9.7991 C.3     1  UNL1        0.1306
      2 N          62.0937   85.6281   11.0195 N.ar    1  UNL1       -0.3216
      3 C          62.6840   84.5496   11.8787 C.ar    1  UNL1        0.0675
      4 C          62.6201   83.0532   11.7965 C.ar    1  UNL1        0.0176
      5 C          63.3259   82.2150   12.8207 C.ar    1  UNL1        0.0078
      6 C          64.0957   82.8731   13.9272 C.ar    1  UNL1        0.0754
      7 C          64.1596   84.3695   14.0094 C.ar    1  UNL1        0.2928
      8 C          63.4538   85.2077   12.9852 C.ar    1  UNL1        0.1042
      9 C          63.3392   86.6930   12.8098 C.ar    1  UNL1        0.1088
     10 N          63.8917   87.8425   13.5994 N.ar    1  UNL1       -0.2222
     11 C          63.6036   89.2518   13.1741 C.ar    1  UNL1        0.2001
     12 N          62.7630   89.5117   11.9592 N.ar    1  UNL1       -0.2075
     13 C          62.2105   88.3622   11.1696 C.ar    1  UNL1        0.1509
     14 C          62.4986   86.9529   11.5949 C.ar    1  UNL1        0.1101
     15 N          61.3699   88.6220    9.9548 N.pl3   1  UNL1       -0.2892
     16 C          60.6042   89.9060    9.8333 C.3     1  UNL1        0.1095
     17 C          59.7636   90.1659    8.6183 C.3     1  UNL1        0.0939
     18 N          59.6888   89.1416    7.5250 N.3     1  UNL1       -0.2695
     19 C          60.4546   87.8576    7.6465 C.3     1  UNL1        0.0939
     20 C          61.2951   87.5978    8.8614 C.3     1  UNL1        0.1095
     21 C          58.8482   89.4015    6.3101 C.3     1  UNL1        0.0769
     22 C          58.6623   90.8044    5.8128 C.3     1  UNL1        0.0437
     23 C          59.6104   91.3726    4.7988 C.ar    1  UNL1       -0.0184
     24 C          59.1500   92.4506    3.8631 C.ar    1  UNL1       -0.0018
     25 C          60.0982   93.0188    2.8490 C.ar    1  UNL1        0.0316
     26 C          61.5067   92.5088    2.7708 C.ar    1  UNL1        0.1674
     27 F          62.4548   93.0770    1.7567 F       1  UNL1       -0.2018
     28 C          61.9670   91.4307    3.7066 C.ar    1  UNL1        0.1671
     29 F          63.3755   90.9207    3.6283 F       1  UNL1       -0.2018
     30 C          61.0189   90.8626    4.7205 C.ar    1  UNL1        0.0277
     31 N          64.9294   85.0276   15.1159 N.pl3   1  UNL1        0.0810
     32 O          64.2488   85.3536   16.4122 O.2     1  UNL1        0.0415
     33 O          66.3797   85.3598   14.9261 O.co2   1  UNL1       -0.5760
@<TRIPOS>UNITY_ATOM_ATTR
31 1
charge 1
33 1
charge -1
@<TRIPOS>BOND
     1     1     2    1
     2     2     3   ar
     3     3     4   ar
     4     4     5   ar
     5     5     6   ar
     6     6     7   ar
     7     7    31    1
     8    31    32    2
     9    31    33    1
    10     7     8   ar
    11     8     9   ar
    12     9    10   ar
    13    10    11   ar
    14    11    12   ar
    15    12    13   ar
    16    13    15    1
    17    15    16    1
    18    16    17    1
    19    17    18    1
    20    18    21    1
    21    21    22    1
    22    22    23    1
    23    23    24   ar
    24    24    25   ar
    25    25    26   ar
    26    26    27    1
    27    26    28   ar
    28    28    29    1
    29    28    30   ar
    30    18    19    1
    31    19    20    1
    32    13    14   ar
    33    14     2   ar
    34     8     3   ar
    35    14     9   ar
    36    20    15    1
    37    30    23   ar
@<TRIPOS>MOLECULE
*****
 33 37 0 0 0
SMALL
GASTEIGER

@<TRIPOS>ATOM
      1 C          63.5037   91.6591   10.5102 C.3     1  UNL1        0.1306
      2 N          64.0768   91.7189   11.8951 N.ar    1  UNL1       -0.3216
      3 C          65.1458   92.6594   12.3670 C.ar    1  UNL1        0.0675
      4 C          65.9117   93.7416   11.6655 C.ar    1  UNL1        0.0176
      5 C          66.9431   94.5348   12.4118 C.ar    1  UNL1        0.0078
      6 C          67.2085   94.2458   13.8595 C.ar    1  UNL1        0.0754
      7 C          66.4426   93.1637   14.5610 C.ar    1  UNL1        0.2928
      8 C          65.4112   92.3704   13.8148 C.ar    1  UNL1        0.1042
      9 C          64.5063   91.2513   14.2376 C.ar    1  UNL1        0.1088
     10 N          64.3267   90.5470   15.5496 N.ar    1  UNL1       -0.2222
     11 C          63.3224   89.4399   15.6753 C.ar    1  UNL1        0.2001
     12 N          62.4977   89.0372   14.4888 N.ar    1  UNL1       -0.2075
     13 C          62.6772   89.7415   13.1768 C.ar    1  UNL1        0.1509
     14 C          63.6815   90.8486   13.0511 C.ar    1  UNL1        0.1101
     15 N          61.8525   89.3388   11.9903 N.pl3   1  UNL1       -0.2892
     16 C          60.3555   89.3359   12.0838 C.3     1  UNL1        0.1095
     17 C          59.5308   88.9331   10.8972 C.3     1  UNL1        0.0939
     18 N          60.2032   88.5334    9.6174 N.3     1  UNL1       -0.2695
     19 C          61.7003   88.5364    9.5239 C.3     1  UNL1        0.0939
     20 C          62.5249   88.9391   10.7104 C.3     1  UNL1        0.1095
     21 C          59.3785   88.1307    8.4309 C.3     1  UNL1        0.0769
     22 C          59.6026   86.7984    7.7791 C.3     1  UNL1        0.0437
     23 C          60.7834   85.9607    8.1714 C.ar    1  UNL1       -0.0184
     24 C          61.6747   85.3791    7.1144 C.ar    1  UNL1       -0.0018
     25 C          62.8555   84.5414    7.5068 C.ar    1  UNL1        0.0316
     26 C          63.1449   84.2852    8.9561 C.ar    1  UNL1        0.1674
     27 F          64.3257   83.4474    9.3484 F       1  UNL1       -0.2018
     28 C          62.2535   84.8667   10.0131 C.ar    1  UNL1        0.1671
     29 F          62.5429   84.6105   11.4625 F       1  UNL1       -0.2018
     30 C          61.0728   85.7044    9.6208 C.ar    1  UNL1        0.0277
     31 N          66.7080   92.8747   16.0088 N.pl3   1  UNL1        0.0810
     32 O          68.0727   92.4330   16.4475 O.2     1  UNL1        0.0415
     33 O          65.6088   93.0274   17.0179 O.co2   1  UNL1       -0.5760
@<TRIPOS>UNITY_ATOM_ATTR
31 1
charge 1
33 1
charge -1
@<TRIPOS>BOND
     1     1     2    1
     2     2     3   ar
     3     3     4   ar
     4     4     5   ar
     5     5     6   ar
     6     6     7   ar
     7     7    31    1
     8    31    32    2
     9    31    33    1
    10     7     8   ar
    11     8     9   ar
    12     9    10   ar
    13    10    11   ar
    14    11    12   ar
    15    12    13   ar
    16    13    15    1
    17    15    16    1
    18    16    17    1
    19    17    18    1
    20    18    21    1
    21    21    22    1
    22    22    23    1
    23    23    24   ar
    24    24    25   ar
    25    25    26   ar
    26    26    27    1
    27    26    28   ar
    28    28    29    1
    29    28    30   ar
    30    18    19    1
    31    19    20    1
    32    13    14   ar
    33    14     2   ar
    34     8     3   ar
    35    14     9   ar
    36    20    15    1
    37    30    23   ar
@<TRIPOS>MOLECULE
*****
 33 37 0 0 0
SMALL
GASTEIGER

@<TRIPOS>ATOM
      1 C          63.5706   86.0757   10.9101 C.3     1  UNL1        0.1306
      2 N          63.3486   84.9126   11.8309 N.ar    1  UNL1       -0.3216
      3 C          63.1996   83.4779   11.4190 C.ar    1  UNL1        0.0675
      4 C          63.2233   82.8119   10.0753 C.ar    1  UNL1        0.0176
      5 C          63.0430   81.3264    9.9713 C.ar    1  UNL1        0.0078
      6 C          62.8390   80.5070   11.2110 C.ar    1  UNL1        0.0754
      7 C          62.8152   81.1731   12.5548 C.ar    1  UNL1        0.2928
      8 C          62.9955   82.6585   12.6588 C.ar    1  UNL1        0.1042
      9 C          63.0185   83.5868   13.8369 C.ar    1  UNL1        0.1088
     10 N          62.8688   83.3435   15.3094 N.ar    1  UNL1       -0.2222
     11 C          62.9374   84.4933   16.2703 C.ar    1  UNL1        0.2001
     12 N          63.1556   85.8864   15.7587 N.ar    1  UNL1       -0.2075
     13 C          63.3052   86.1296   14.2861 C.ar    1  UNL1        0.1509
     14 C          63.2367   84.9799   13.3252 C.ar    1  UNL1        0.1101
     15 N          63.5234   87.5227   13.7745 N.pl3   1  UNL1       -0.2892
     16 C          64.4015   88.4719   14.5347 C.3     1  UNL1        0.1095
     17 C          64.6197   89.8650   14.0230 C.3     1  UNL1        0.0939
     18 N          63.9598   90.3088   12.7512 N.3     1  UNL1       -0.2695
     19 C          63.0816   89.3595   11.9910 C.3     1  UNL1        0.0939
     20 C          62.8635   87.9666   12.5026 C.3     1  UNL1        0.1095
     21 C          64.1780   91.7019   12.2395 C.3     1  UNL1        0.0769
     22 C          65.4753   92.4051   12.5087 C.3     1  UNL1        0.0437
     23 C          66.1306   93.2104   11.4261 C.ar    1  UNL1       -0.0184
     24 C          65.8844   94.6872   11.3364 C.ar    1  UNL1       -0.0018
     25 C          66.5398   95.4924   10.2537 C.ar    1  UNL1        0.0316
     26 C          67.4413   94.8207    9.2607 C.ar    1  UNL1        0.1674
     27 F          68.0967   95.6260    8.1781 F       1  UNL1       -0.2018
     28 C          67.6876   93.3438    9.3504 C.ar    1  UNL1        0.1671
     29 F          68.5891   92.6721    8.3575 F       1  UNL1       -0.2018
     30 C          67.0322   92.5386   10.4330 C.ar    1  UNL1        0.0277
     31 N          62.6112   80.3537   13.7945 N.pl3   1  UNL1        0.0810
     32 O          63.7897   79.9549   14.6324 O.2     1  UNL1        0.0415
     33 O          61.2286   79.9331   14.1964 O.co2   1  UNL1       -0.5760
@<TRIPOS>UNITY_ATOM_ATTR
31 1
charge 1
33 1
charge -1
@<TRIPOS>BOND
     1     1     2    1
     2     2     3   ar
     3     3     4   ar
     4     4     5   ar
     5     5     6   ar
     6     6     7   ar
     7     7    31    1
     8    31    32    2
     9    31    33    1
    10     7     8   ar
    11     8     9   ar
    12     9    10   ar
    13    10    11   ar
    14    11    12   ar
    15    12    13   ar
    16    13    15    1
    17    15    16    1
    18    16    17    1
    19    17    18    1
    20    18    21    1
    21    21    22    1
    22    22    23    1
    23    23    24   ar
    24    24    25   ar
    25    25    26   ar
    26    26    27    1
    27    26    28   ar
    28    28    29    1
    29    28    30   ar
    30    18    19    1
    31    19    20    1
    32    13    14   ar
    33    14     2   ar
    34     8     3   ar
    35    14     9   ar
    36    20    15    1
    37    30    23   ar
