@<TRIPOS>MOLECULE
*****
 39 43 0 0 0
SMALL
GASTEIGER

@<TRIPOS>ATOM
      1 C          64.2610   89.2164   14.4161 C.3     1  UNL1        0.0177
      2 C          63.6914   88.1090   13.5798 C.3     1  UNL1        0.0627
      3 C          64.0016   86.6802   13.9152 C.3     1  UNL1        0.0436
      4 C          63.4320   85.5729   13.0789 C.2     1  UNL1       -0.0045
      5 C          62.5522   85.8943   11.9073 C.2     1  UNL1        0.0735
      6 N          62.1379   84.6010   11.2703 N.2     1  UNL1       -0.2523
      7 C          62.7617   83.4803   12.0481 C.2     1  UNL1        0.0627
      8 C          62.7047   81.9906   11.8830 C.3     1  UNL1        0.0717
      9 C          63.4475   81.1015   12.8357 C.2     1  UNL1       -0.0198
     10 C          64.2473   81.7021   13.9535 C.2     1  UNL1       -0.0042
     11 C          64.3043   83.1919   14.1187 C.2     1  UNL1        0.0006
     12 C          63.5615   84.0810   13.1660 C.2     1  UNL1        0.0111
     13 C          62.2420   87.3230   11.5719 C.3     1  UNL1        0.1250
     14 N          62.8116   88.4304   12.4082 N.3     1  UNL1       -0.2618
     15 C          61.3622   87.6444   10.4003 C.ar    1  UNL1        0.0529
     16 C          60.0924   88.4160   10.6054 C.ar    1  UNL1        0.1411
     17 F          59.7023   88.8661   11.9820 F       1  UNL1       -0.2043
     18 C          59.2126   88.7373    9.4337 C.ar    1  UNL1        0.0438
     19 C          59.6027   88.2872    8.0570 C.ar    1  UNL1        0.0492
     20 C          60.8726   87.5156    7.8520 C.ar    1  UNL1        0.0438
     21 C          61.7524   87.1942    9.0236 C.ar    1  UNL1        0.1411
     22 F          63.0223   86.4227    8.8187 F       1  UNL1       -0.2043
     23 N          58.7229   88.6086    6.8854 N.pl3   1  UNL1       -0.3316
     24 H          57.9877   88.0013    6.6407 H       1  UNL1        0.1468
     25 C          58.9633   89.8553    6.0867 C.3     1  UNL1        0.1014
     26 C          58.0923   90.9398    5.5253 C.3     1  UNL1        0.0933
     27 N          59.3033   91.6183    4.9571 N.3     1  UNL1       -0.2697
     28 C          60.1744   90.5338    5.5184 C.3     1  UNL1        0.0933
     29 C          59.5437   92.8650    4.1583 C.3     1  UNL1        0.0751
     30 C          60.0111   92.7663    2.7364 C.3     1  UNL1        0.0554
     31 C          61.4790   92.7323    2.4302 C.3     1  UNL1        0.1947
     32 F          62.4044   91.9157    3.2827 F       1  UNL1       -0.2343
     33 C          62.5014   89.8591   12.0728 C.3     1  UNL1        0.1425
     34 C          63.5907   90.7692   11.5878 C.3     1  UNL1        0.3049
     35 F          63.6259   91.4413   12.9283 F       1  UNL1       -0.2001
     36 F          63.5554   90.0971   10.2473 F       1  UNL1       -0.2001
     37 C          64.6800   91.6793   11.1029 C.3     1  UNL1        0.2057
     38 O          64.3701   92.7535   10.1028 O.3     1  UNL1       -0.3771
     39 H          64.1116   92.3467    9.2610 H       1  UNL1        0.2106
@<TRIPOS>BOND
     1     2     1    1
     2     2     3    1
     3     3     4    1
     4     4     5    2
     5     5     6    1
     6     6     7    2
     7     7     8    1
     8     8     9    1
     9     9    10    2
    10    10    11    1
    11    11    12    2
    12     5    13    1
    13    13    15    1
    14    15    16   ar
    15    16    17    1
    16    16    18   ar
    17    18    19   ar
    18    19    23    1
    19    23    25    1
    20    25    26    1
    21    26    27    1
    22    27    29    1
    23    29    30    1
    24    30    31    1
    25    31    32    1
    26    27    28    1
    27    19    20   ar
    28    20    21   ar
    29    21    22    1
    30    13    14    1
    31    14    33    1
    32    33    34    1
    33    34    35    1
    34    34    36    1
    35    34    37    1
    36    37    38    1
    37    14     2    1
    38    12     4    1
    39    21    15   ar
    40    12     7    1
    41    28    25    1
    42    23    24    1
    43    38    39    1
@<TRIPOS>MOLECULE
*****
 39 43 0 0 0
SMALL
GASTEIGER

@<TRIPOS>ATOM
      1 C          64.2756   89.2738   14.3778 C.3     1  UNL1        0.0177
      2 C          63.7025   88.1657   13.5448 C.3     1  UNL1        0.0627
      3 C          64.0162   86.7373   13.8785 C.3     1  UNL1        0.0436
      4 C          63.4431   85.6293   13.0455 C.2     1  UNL1       -0.0045
      5 C          62.5564   85.9497   11.8789 C.2     1  UNL1        0.0735
      6 N          62.1399   84.6559   11.2442 N.2     1  UNL1       -0.2523
      7 C          62.7693   83.5360   12.0186 C.2     1  UNL1        0.0627
      8 C          62.7131   82.0461   11.8539 C.3     1  UNL1        0.0717
      9 C          63.4622   81.1579   12.8024 C.2     1  UNL1       -0.0198
     10 C          64.2677   81.7595   13.9157 C.2     1  UNL1       -0.0042
     11 C          64.3239   83.2494   14.0804 C.2     1  UNL1        0.0006
     12 C          63.5747   84.1376   13.1319 C.2     1  UNL1        0.0111
     13 C          62.2427   87.3780   11.5452 C.3     1  UNL1        0.1250
     14 N          62.8157   88.4861   12.3781 N.3     1  UNL1       -0.2618
     15 C          61.3559   87.6984   10.3786 C.ar    1  UNL1        0.0529
     16 C          61.7293   87.2326    9.0026 C.ar    1  UNL1        0.1411
     17 F          62.9895   86.4465    8.7931 F       1  UNL1       -0.2043
     18 C          60.8425   87.5530    7.8359 C.ar    1  UNL1        0.0438
     19 C          59.5823   88.3392    8.0454 C.ar    1  UNL1        0.0492
     20 C          59.2089   88.8050    9.4215 C.ar    1  UNL1        0.0438
     21 C          60.0957   88.4846   10.5880 C.ar    1  UNL1        0.1411
     22 F          59.7223   88.9504   11.9641 F       1  UNL1       -0.2043
     23 N          58.6956   88.6595    6.8787 N.pl3   1  UNL1       -0.3316
     24 H          57.9514   88.0583    6.6464 H       1  UNL1        0.1468
     25 C          58.9427   89.8959    6.0660 C.3     1  UNL1        0.1014
     26 C          58.0750   90.9644    5.4700 C.3     1  UNL1        0.0933
     27 N          59.2922   91.6443    4.9167 N.3     1  UNL1       -0.2697
     28 C          60.1599   90.5757    5.5127 C.3     1  UNL1        0.0933
     29 C          59.5393   92.8806    4.1040 C.3     1  UNL1        0.0751
     30 C          60.0772   92.7657    2.7085 C.3     1  UNL1        0.0554
     31 C          61.5583   92.7135    2.4775 C.3     1  UNL1        0.1947
     32 F          62.4045   91.7465    3.2514 F       1  UNL1       -0.2343
     33 C          62.5020   89.9145   12.0444 C.3     1  UNL1        0.1425
     34 C          63.5614   90.7966   11.4531 C.3     1  UNL1        0.3049
     35 F          63.5011   90.0127   10.1757 F       1  UNL1       -0.2001
     36 F          63.6217   91.5805   12.7305 F       1  UNL1       -0.2001
     37 C          64.6207   91.6787   10.8618 C.3     1  UNL1        0.2057
     38 O          65.3223   92.6880   11.7216 O.3     1  UNL1       -0.3771
     39 H          64.6890   93.3646   12.0082 H       1  UNL1        0.2106
@<TRIPOS>BOND
     1     2     1    1
     2     2     3    1
     3     3     4    1
     4     4     5    2
     5     5     6    1
     6     6     7    2
     7     7     8    1
     8     8     9    1
     9     9    10    2
    10    10    11    1
    11    11    12    2
    12     5    13    1
    13    13    15    1
    14    15    16   ar
    15    16    17    1
    16    16    18   ar
    17    18    19   ar
    18    19    23    1
    19    23    25    1
    20    25    26    1
    21    26    27    1
    22    27    29    1
    23    29    30    1
    24    30    31    1
    25    31    32    1
    26    27    28    1
    27    19    20   ar
    28    20    21   ar
    29    21    22    1
    30    13    14    1
    31    14    33    1
    32    33    34    1
    33    34    35    1
    34    34    36    1
    35    34    37    1
    36    37    38    1
    37    14     2    1
    38    12     4    1
    39    21    15   ar
    40    12     7    1
    41    28    25    1
    42    23    24    1
    43    38    39    1
@<TRIPOS>MOLECULE
*****
 39 43 0 0 0
SMALL
GASTEIGER

@<TRIPOS>ATOM
      1 C          63.8209   84.7532   14.4014 C.3     1  UNL1        0.0177
      2 C          63.6583   86.0878   13.7361 C.3     1  UNL1        0.0627
      3 C          64.4033   87.2811   14.2568 C.3     1  UNL1        0.0436
      4 C          64.2407   88.6156   13.5915 C.2     1  UNL1       -0.0045
      5 C          63.3332   88.7568   12.4056 C.2     1  UNL1        0.0735
      6 N          63.3726   90.1885   11.9598 N.2     1  UNL1       -0.2523
      7 C          64.3045   90.9321   12.8701 C.2     1  UNL1        0.0627
      8 C          64.7337   92.3687   12.9110 C.3     1  UNL1        0.0717
      9 C          65.6996   92.8332   13.9604 C.2     1  UNL1       -0.0198
     10 C          66.2361   91.8611   14.9689 C.2     1  UNL1       -0.0042
     11 C          65.8069   90.4244   14.9280 C.2     1  UNL1        0.0006
     12 C          64.8410   89.9599   13.8786 C.2     1  UNL1        0.0111
     13 C          62.5882   87.5635   11.8849 C.3     1  UNL1        0.1250
     14 N          62.7507   86.2290   12.5502 N.3     1  UNL1       -0.2618
     15 C          61.6806   87.7048   10.6990 C.ar    1  UNL1        0.0529
     16 C          62.0326   87.0392    9.4018 C.ar    1  UNL1        0.1411
     17 F          63.2922   86.2323    9.2903 F       1  UNL1       -0.2043
     18 C          61.1250   87.1805    8.2158 C.ar    1  UNL1        0.0438
     19 C          59.8654   87.9873    8.3273 C.ar    1  UNL1        0.0492
     20 C          59.5134   88.6529    9.6246 C.ar    1  UNL1        0.0438
     21 C          60.4210   88.5117   10.8104 C.ar    1  UNL1        0.1411
     22 F          60.0690   89.1772   12.1078 F       1  UNL1       -0.2043
     23 N          58.9578   88.1286    7.1414 N.pl3   1  UNL1       -0.3316
     24 H          58.3555   87.3909    6.8919 H       1  UNL1        0.1468
     25 C          58.9680   89.3938    6.3357 C.3     1  UNL1        0.1014
     26 C          60.0128   90.1647    5.5847 C.3     1  UNL1        0.0933
     27 N          58.9822   91.1830    5.1962 N.3     1  UNL1       -0.2697
     28 C          57.9374   90.4121    5.9471 C.3     1  UNL1        0.0933
     29 C          58.9923   92.4482    4.3905 C.3     1  UNL1        0.0751
     30 C          60.0866   92.6945    3.3945 C.3     1  UNL1        0.0554
     31 C          59.7455   93.0202    1.9707 C.3     1  UNL1        0.1947
     32 F          60.2946   92.1793    0.8566 F       1  UNL1       -0.2343
     33 C          62.0057   85.0357   12.0295 C.3     1  UNL1        0.1425
     34 C          62.7445   83.7685   11.7159 C.3     1  UNL1        0.3049
     35 F          63.4990   84.4771   10.6303 F       1  UNL1       -0.2001
     36 F          61.9900   83.0600   12.8016 F       1  UNL1       -0.2001
     37 C          63.4833   82.5013   11.4023 C.3     1  UNL1        0.2057
     38 O          64.9823   82.4750   11.4526 O.3     1  UNL1       -0.3771
     39 H          65.3393   83.0476   10.7558 H       1  UNL1        0.2106
@<TRIPOS>BOND
     1     2     1    1
     2     2     3    1
     3     3     4    1
     4     4     5    2
     5     5     6    1
     6     6     7    2
     7     7     8    1
     8     8     9    1
     9     9    10    2
    10    10    11    1
    11    11    12    2
    12     5    13    1
    13    13    15    1
    14    15    16   ar
    15    16    17    1
    16    16    18   ar
    17    18    19   ar
    18    19    23    1
    19    23    25    1
    20    25    26    1
    21    26    27    1
    22    27    29    1
    23    29    30    1
    24    30    31    1
    25    31    32    1
    26    27    28    1
    27    19    20   ar
    28    20    21   ar
    29    21    22    1
    30    13    14    1
    31    14    33    1
    32    33    34    1
    33    34    35    1
    34    34    36    1
    35    34    37    1
    36    37    38    1
    37    14     2    1
    38    12     4    1
    39    21    15   ar
    40    12     7    1
    41    28    25    1
    42    23    24    1
    43    38    39    1
