@<TRIPOS>MOLECULE
*****
 37 40 0 0 0
SMALL
GASTEIGER

@<TRIPOS>ATOM
      1 C          63.9665   87.6666   15.2433 C.ar    1  UNL1        0.0908
      2 C          63.1405   88.1188   16.4109 C.ar    1  UNL1        0.1363
      3 N          63.3209   89.6005   16.5601 N.ar    1  UNL1       -0.1661
      4 N          64.2584   90.0639   15.4848 N.ar    1  UNL1       -0.2459
      5 C          64.6574   88.8687   14.6710 C.ar    1  UNL1        0.1116
      6 C          63.1653   85.1952   15.2647 C.2     1  UNL1        0.2703
      7 O          62.1343   85.5384   16.2987 O.2     1  UNL1       -0.2681
      8 N          64.0814   86.2593   14.7370 N.am    1  UNL1       -0.2766
      9 H          64.7581   86.0340   14.0584 H       1  UNL1        0.1553
     10 C          62.5625   84.1981   12.2164 C.3     1  UNL1        0.0362
     11 C          63.0032   83.3296   13.3573 C.ar    1  UNL1        0.0421
     12 C          63.2803   83.7880   14.7584 C.ar    1  UNL1        0.1723
     13 N          63.6925   82.5919   15.5645 N.ar    1  UNL1       -0.0726
     14 O          63.6702   81.3944   14.6614 O.2     1  UNL1       -0.3520
     15 C          63.2442   81.8503   13.2973 C.ar    1  UNL1        0.1904
     16 C          63.0868   80.9798   12.0860 C.ar    1  UNL1        0.1181
     17 C          63.3663   81.5361   10.7212 C.ar    1  UNL1        0.0223
     18 C          63.2089   80.6656    9.5098 C.ar    1  UNL1        0.0032
     19 C          62.7720   79.2388    9.6631 C.ar    1  UNL1        0.0207
     20 C          62.4925   78.6826   11.0278 C.ar    1  UNL1        0.0989
     21 N          62.6498   79.5531   12.2393 N.ar    1  UNL1       -0.2407
     22 C          64.7165   91.4748   15.2623 C.3     1  UNL1        0.1274
     23 C          64.5555   92.4958   16.3493 C.3     1  UNL1        0.0312
     24 C          65.3356   91.8647   13.9528 C.ar    1  UNL1        0.0038
     25 C          64.5114   91.8502   12.6997 C.ar    1  UNL1       -0.0025
     26 C          65.1305   92.2401   11.3903 C.ar    1  UNL1        0.0036
     27 C          66.5739   92.6444   11.3339 C.ar    1  UNL1        0.0714
     28 C          67.3981   92.6588   12.5870 C.ar    1  UNL1        0.0074
     29 C          66.7790   92.2690   13.8965 C.ar    1  UNL1        0.0692
     30 C          67.1930   93.0343   10.0244 C.3     1  UNL1        0.4186
     31 F          67.8121   93.4241    8.7150 F       1  UNL1       -0.1659
     32 F          68.1463   91.8812   10.1318 F       1  UNL1       -0.1659
     33 F          66.2397   94.1873    9.9170 F       1  UNL1       -0.1659
     34 C          67.6033   92.2834   15.1497 C.3     1  UNL1        0.4183
     35 F          68.4275   92.2978   16.4028 F       1  UNL1       -0.1659
     36 F          67.4847   93.7774   15.2105 F       1  UNL1       -0.1659
     37 F          67.7219   90.7893   15.0889 F       1  UNL1       -0.1659
@<TRIPOS>BOND
     1    10    11    1
     2    11    12   ar
     3    12     6    1
     4     6     7    2
     5     6     8   am
     6     8     1    1
     7     1     2   ar
     8     2     3   ar
     9     3     4   ar
    10     4    22    1
    11    22    23    1
    12    22    24    1
    13    24    25   ar
    14    25    26   ar
    15    26    27   ar
    16    27    30    1
    17    30    31    1
    18    30    32    1
    19    30    33    1
    20    27    28   ar
    21    28    29   ar
    22    29    34    1
    23    34    35    1
    24    34    36    1
    25    34    37    1
    26     4     5   ar
    27    12    13   ar
    28    13    14   ar
    29    14    15   ar
    30    15    16    1
    31    16    17   ar
    32    17    18   ar
    33    18    19   ar
    34    19    20   ar
    35    20    21   ar
    36    15    11   ar
    37    21    16   ar
    38     5     1   ar
    39    29    24   ar
    40     8     9    1
@<TRIPOS>MOLECULE
*****
 37 40 0 0 0
SMALL
GASTEIGER

@<TRIPOS>ATOM
      1 C          60.2597   89.1608    9.2007 C.ar    1  UNL1        0.0908
      2 C          59.2362   88.3379    9.9256 C.ar    1  UNL1        0.1363
      3 N          59.9512   87.5025   10.9458 N.ar    1  UNL1       -0.1661
      4 N          61.4165   87.8090   10.8515 N.ar    1  UNL1       -0.2459
      5 C          61.6072   88.8339    9.7729 C.ar    1  UNL1        0.1116
      6 C          59.3057   89.6801    6.8406 C.2     1  UNL1        0.2703
      7 O          58.9028   88.2434    6.6873 O.2     1  UNL1       -0.2681
      8 N          59.9841   90.1388    8.0973 N.am    1  UNL1       -0.2766
      9 H          60.2485   91.0818    8.1979 H       1  UNL1        0.1553
     10 C          61.5156   90.9354    4.7936 C.3     1  UNL1        0.0362
     11 C          60.0459   91.2351    4.7963 C.ar    1  UNL1        0.0421
     12 C          59.0301   90.6582    5.7372 C.ar    1  UNL1        0.1723
     13 N          57.6902   91.2309    5.3811 N.ar    1  UNL1       -0.0726
     14 O          57.8780   92.1620    4.2200 O.2     1  UNL1       -0.3520
     15 C          59.3338   92.1645    3.8586 C.ar    1  UNL1        0.1904
     16 C          59.9666   92.9573    2.7536 C.ar    1  UNL1        0.1181
     17 C          60.5320   92.2544    1.5550 C.ar    1  UNL1        0.0223
     18 C          61.1647   93.0471    0.4500 C.ar    1  UNL1        0.0032
     19 C          61.2321   94.5428    0.5434 C.ar    1  UNL1        0.0207
     20 C          60.6668   95.2456    1.7419 C.ar    1  UNL1        0.0989
     21 N          60.0340   94.4528    2.8470 N.ar    1  UNL1       -0.2407
     22 C          62.5008   87.1979   11.6887 C.3     1  UNL1        0.1274
     23 C          63.5027   88.0771   12.3766 C.3     1  UNL1        0.0312
     24 C          62.5831   85.7076   11.8380 C.ar    1  UNL1        0.0038
     25 C          62.7338   85.0975   13.2000 C.ar    1  UNL1       -0.0025
     26 C          62.8161   83.6072   13.3492 C.ar    1  UNL1        0.0036
     27 C          62.7478   82.7271   12.1365 C.ar    1  UNL1        0.0714
     28 C          62.5972   83.3372   10.7745 C.ar    1  UNL1        0.0074
     29 C          62.5148   84.8274   10.6253 C.ar    1  UNL1        0.0692
     30 C          62.8301   81.2367   12.2858 C.3     1  UNL1        0.4186
     31 F          62.9125   79.7465   12.4351 F       1  UNL1       -0.1659
     32 F          63.0386   81.1000   10.8067 F       1  UNL1       -0.1659
     33 F          62.6216   81.3734   13.7649 F       1  UNL1       -0.1659
     34 C          62.3642   85.4376    9.2632 C.3     1  UNL1        0.4183
     35 F          62.2135   86.0478    7.9013 F       1  UNL1       -0.1659
     36 F          60.8734   85.4400    9.4293 F       1  UNL1       -0.1659
     37 F          63.8549   85.4352    9.0972 F       1  UNL1       -0.1659
@<TRIPOS>BOND
     1    10    11    1
     2    11    12   ar
     3    12     6    1
     4     6     7    2
     5     6     8   am
     6     8     1    1
     7     1     2   ar
     8     2     3   ar
     9     3     4   ar
    10     4    22    1
    11    22    23    1
    12    22    24    1
    13    24    25   ar
    14    25    26   ar
    15    26    27   ar
    16    27    30    1
    17    30    31    1
    18    30    32    1
    19    30    33    1
    20    27    28   ar
    21    28    29   ar
    22    29    34    1
    23    34    35    1
    24    34    36    1
    25    34    37    1
    26     4     5   ar
    27    12    13   ar
    28    13    14   ar
    29    14    15   ar
    30    15    16    1
    31    16    17   ar
    32    17    18   ar
    33    18    19   ar
    34    19    20   ar
    35    20    21   ar
    36    15    11   ar
    37    21    16   ar
    38     5     1   ar
    39    29    24   ar
    40     8     9    1
@<TRIPOS>MOLECULE
*****
 37 40 0 0 0
SMALL
GASTEIGER

@<TRIPOS>ATOM
      1 C          63.8661   87.1646   14.6112 C.ar    1  UNL1        0.0908
      2 C          63.3434   87.3026   16.0104 C.ar    1  UNL1        0.1363
      3 N          63.4920   88.7376   16.4213 N.ar    1  UNL1       -0.1661
      4 N          64.1065   89.4864   15.2761 N.ar    1  UNL1       -0.2459
      5 C          64.3377   88.5142   14.1574 C.ar    1  UNL1        0.1116
      6 C          63.1950   85.8223   12.4904 C.2     1  UNL1        0.2703
      7 O          62.4371   87.0110   11.9780 O.2     1  UNL1       -0.2681
      8 N          63.9095   85.8991   13.8071 N.am    1  UNL1       -0.2766
      9 H          64.4070   85.1189   14.1434 H       1  UNL1        0.1553
     10 C          62.5722   82.8190   13.6049 C.3     1  UNL1        0.0362
     11 C          62.9522   83.1764   12.1985 C.ar    1  UNL1        0.0421
     12 C          63.2385   84.5568   11.6863 C.ar    1  UNL1        0.1723
     13 N          63.5759   84.4497   10.2286 N.ar    1  UNL1       -0.0726
     14 O          63.4981   83.0029    9.8400 O.2     1  UNL1       -0.3520
     15 C          63.1126   82.2161   11.0574 C.ar    1  UNL1        0.1904
     16 C          62.9212   80.7297   11.1225 C.ar    1  UNL1        0.1181
     17 C          62.9677   79.9118    9.8658 C.ar    1  UNL1        0.0223
     18 C          62.7762   78.4256    9.9308 C.ar    1  UNL1        0.0032
     19 C          62.5384   77.7571   11.2524 C.ar    1  UNL1        0.0207
     20 C          62.4919   78.5749   12.5090 C.ar    1  UNL1        0.0989
     21 N          62.6833   80.0613   12.4440 N.ar    1  UNL1       -0.2407
     22 C          64.4326   90.9504   15.2534 C.3     1  UNL1        0.1274
     23 C          64.1507   91.8002   16.4569 C.3     1  UNL1        0.0312
     24 C          65.0405   91.5645   14.0273 C.ar    1  UNL1        0.0038
     25 C          64.2587   91.6168   12.7483 C.ar    1  UNL1       -0.0025
     26 C          64.8666   92.2309   11.5223 C.ar    1  UNL1        0.0036
     27 C          66.2565   92.7927   11.5752 C.ar    1  UNL1        0.0714
     28 C          67.0383   92.7403   12.8542 C.ar    1  UNL1        0.0074
     29 C          66.4304   92.1262   14.0803 C.ar    1  UNL1        0.0692
     30 C          66.8644   93.4068   10.3491 C.3     1  UNL1        0.4186
     31 F          67.4723   94.0209    9.1231 F       1  UNL1       -0.1659
     32 F          67.7837   92.2292   10.2150 F       1  UNL1       -0.1659
     33 F          65.9451   94.5844   10.4832 F       1  UNL1       -0.1659
     34 C          67.2123   92.0739   15.3594 C.3     1  UNL1        0.4183
     35 F          67.9941   92.0215   16.6384 F       1  UNL1       -0.1659
     36 F          67.6260   90.6660   15.0487 F       1  UNL1       -0.1659
     37 F          66.7985   93.4818   15.6700 F       1  UNL1       -0.1659
@<TRIPOS>BOND
     1    10    11    1
     2    11    12   ar
     3    12     6    1
     4     6     7    2
     5     6     8   am
     6     8     1    1
     7     1     2   ar
     8     2     3   ar
     9     3     4   ar
    10     4    22    1
    11    22    23    1
    12    22    24    1
    13    24    25   ar
    14    25    26   ar
    15    26    27   ar
    16    27    30    1
    17    30    31    1
    18    30    32    1
    19    30    33    1
    20    27    28   ar
    21    28    29   ar
    22    29    34    1
    23    34    35    1
    24    34    36    1
    25    34    37    1
    26     4     5   ar
    27    12    13   ar
    28    13    14   ar
    29    14    15   ar
    30    15    16    1
    31    16    17   ar
    32    17    18   ar
    33    18    19   ar
    34    19    20   ar
    35    20    21   ar
    36    15    11   ar
    37    21    16   ar
    38     5     1   ar
    39    29    24   ar
    40     8     9    1
@<TRIPOS>MOLECULE
*****
 37 40 0 0 0
SMALL
GASTEIGER

@<TRIPOS>ATOM
      1 C          62.3405   88.4170   11.5983 C.ar    1  UNL1        0.0908
      2 C          61.2161   89.3712   11.3238 C.ar    1  UNL1        0.1363
      3 N          61.7949   90.7508   11.2155 N.ar    1  UNL1       -0.1661
      4 N          63.2770   90.6493   11.4232 N.ar    1  UNL1       -0.2459
      5 C          63.6141   89.2070   11.6598 C.ar    1  UNL1        0.1116
      6 C          62.9995   86.2389   12.8519 C.2     1  UNL1        0.2703
      7 O          63.9125   87.0280   13.7429 O.2     1  UNL1       -0.2681
      8 N          62.2135   86.9335   11.7796 N.am    1  UNL1       -0.2766
      9 H          61.6142   86.4156   11.1948 H       1  UNL1        0.1553
     10 C          63.1615   83.9966   10.4864 C.3     1  UNL1        0.0362
     11 C          62.9470   83.7247   11.9459 C.ar    1  UNL1        0.0421
     12 C          62.8725   84.7554   13.0332 C.ar    1  UNL1        0.1723
     13 N          62.6487   84.0421   14.3336 N.ar    1  UNL1       -0.0726
     14 O          62.5849   82.5704   14.0500 O.2     1  UNL1       -0.3520
     15 C          62.7692   82.3743   12.5744 C.ar    1  UNL1        0.1904
     16 C          62.7748   81.0588   11.8537 C.ar    1  UNL1        0.1181
     17 C          63.0412   81.0131   10.3781 C.ar    1  UNL1        0.0223
     18 C          63.0468   79.6977    9.6574 C.ar    1  UNL1        0.0032
     19 C          62.7860   78.4278   10.4121 C.ar    1  UNL1        0.0207
     20 C          62.5196   78.4735   11.8876 C.ar    1  UNL1        0.0989
     21 N          62.5140   79.7890   12.6084 N.ar    1  UNL1       -0.2407
     22 C          64.2509   91.7899   11.3987 C.3     1  UNL1        0.1274
     23 C          64.1954   92.7998   10.2910 C.3     1  UNL1        0.0312
     24 C          65.2804   91.9205   12.4818 C.ar    1  UNL1        0.0038
     25 C          64.9894   91.4034   13.8594 C.ar    1  UNL1       -0.0025
     26 C          66.0188   91.5340   14.9425 C.ar    1  UNL1        0.0036
     27 C          67.3393   92.1818   14.6480 C.ar    1  UNL1        0.0714
     28 C          67.6303   92.6989   13.2704 C.ar    1  UNL1        0.0074
     29 C          66.6009   92.5683   12.1873 C.ar    1  UNL1        0.0692
     30 C          68.3688   92.3124   15.7312 C.3     1  UNL1        0.4186
     31 F          69.3982   92.4430   16.8143 F       1  UNL1       -0.1659
     32 F          69.4534   92.3510   14.6957 F       1  UNL1       -0.1659
     33 F          67.2842   92.2739   16.7666 F       1  UNL1       -0.1659
     34 C          66.8919   93.0854   10.8096 C.3     1  UNL1        0.4183
     35 F          67.1829   93.6024    9.4320 F       1  UNL1       -0.1659
     36 F          67.3144   91.7108   10.3829 F       1  UNL1       -0.1659
     37 F          66.4694   94.4599   11.2362 F       1  UNL1       -0.1659
@<TRIPOS>BOND
     1    10    11    1
     2    11    12   ar
     3    12     6    1
     4     6     7    2
     5     6     8   am
     6     8     1    1
     7     1     2   ar
     8     2     3   ar
     9     3     4   ar
    10     4    22    1
    11    22    23    1
    12    22    24    1
    13    24    25   ar
    14    25    26   ar
    15    26    27   ar
    16    27    30    1
    17    30    31    1
    18    30    32    1
    19    30    33    1
    20    27    28   ar
    21    28    29   ar
    22    29    34    1
    23    34    35    1
    24    34    36    1
    25    34    37    1
    26     4     5   ar
    27    12    13   ar
    28    13    14   ar
    29    14    15   ar
    30    15    16    1
    31    16    17   ar
    32    17    18   ar
    33    18    19   ar
    34    19    20   ar
    35    20    21   ar
    36    15    11   ar
    37    21    16   ar
    38     5     1   ar
    39    29    24   ar
    40     8     9    1
@<TRIPOS>MOLECULE
*****
 37 40 0 0 0
SMALL
GASTEIGER

@<TRIPOS>ATOM
      1 C          62.0121   90.0576   11.3757 C.ar    1  UNL1        0.0908
      2 C          60.8417   90.5199   10.5592 C.ar    1  UNL1        0.1363
      3 N          60.3686   89.3625    9.7305 N.ar    1  UNL1       -0.1661
      4 N          61.2465   88.1849   10.0348 N.ar    1  UNL1       -0.2459
      5 C          62.2622   88.6146   11.0516 C.ar    1  UNL1        0.1116
      6 C          63.4566   90.2460   13.5268 C.2     1  UNL1        0.2703
      7 O          63.3357   88.7658   13.7376 O.2     1  UNL1       -0.2681
      8 N          62.7948   90.8919   12.3458 N.am    1  UNL1       -0.2766
      9 H          62.8742   91.8634   12.2075 H       1  UNL1        0.1553
     10 C          66.5851   91.1212   13.2160 C.3     1  UNL1        0.0362
     11 C          65.6773   91.4825   14.3541 C.ar    1  UNL1        0.0421
     12 C          64.2394   91.0803   14.4970 C.ar    1  UNL1        0.1723
     13 N          63.7215   91.6587   15.7805 N.ar    1  UNL1       -0.0726
     14 O          64.8395   92.4186   16.4308 O.2     1  UNL1       -0.3520
     15 C          66.0482   92.3096   15.5493 C.ar    1  UNL1        0.1904
     16 C          67.3919   92.9206   15.8160 C.ar    1  UNL1        0.1181
     17 C          68.5023   92.0778   16.3702 C.ar    1  UNL1        0.0223
     18 C          69.8460   92.6887   16.6369 C.ar    1  UNL1        0.0032
     19 C          70.0795   94.1424   16.3496 C.ar    1  UNL1        0.0207
     20 C          68.9691   94.9850   15.7955 C.ar    1  UNL1        0.0989
     21 N          67.6253   94.3742   15.5287 N.ar    1  UNL1       -0.2407
     22 C          61.1293   86.8178    9.4288 C.3     1  UNL1        0.1274
     23 C          60.2517   86.6007    8.2320 C.3     1  UNL1        0.0312
     24 C          61.8899   85.6678   10.0197 C.ar    1  UNL1        0.0038
     25 C          61.8119   85.3948   11.4926 C.ar    1  UNL1       -0.0025
     26 C          62.5725   84.2448   12.0834 C.ar    1  UNL1        0.0036
     27 C          63.4109   83.3678   11.2014 C.ar    1  UNL1        0.0714
     28 C          63.4888   83.6408    9.7285 C.ar    1  UNL1        0.0074
     29 C          62.7283   84.7908    9.1377 C.ar    1  UNL1        0.0692
     30 C          64.1714   82.2178   11.7923 C.3     1  UNL1        0.4186
     31 F          64.9319   81.0679   12.3832 F       1  UNL1       -0.1659
     32 F          63.8474   81.3846   10.5878 F       1  UNL1       -0.1659
     33 F          64.4954   83.0510   12.9967 F       1  UNL1       -0.1659
     34 C          62.8062   85.0639    7.6648 C.3     1  UNL1        0.4183
     35 F          62.8841   85.3370    6.1919 F       1  UNL1       -0.1659
     36 F          63.8912   86.0704    7.9088 F       1  UNL1       -0.1659
     37 F          61.7211   84.0574    7.4207 F       1  UNL1       -0.1659
@<TRIPOS>BOND
     1    10    11    1
     2    11    12   ar
     3    12     6    1
     4     6     7    2
     5     6     8   am
     6     8     1    1
     7     1     2   ar
     8     2     3   ar
     9     3     4   ar
    10     4    22    1
    11    22    23    1
    12    22    24    1
    13    24    25   ar
    14    25    26   ar
    15    26    27   ar
    16    27    30    1
    17    30    31    1
    18    30    32    1
    19    30    33    1
    20    27    28   ar
    21    28    29   ar
    22    29    34    1
    23    34    35    1
    24    34    36    1
    25    34    37    1
    26     4     5   ar
    27    12    13   ar
    28    13    14   ar
    29    14    15   ar
    30    15    16    1
    31    16    17   ar
    32    17    18   ar
    33    18    19   ar
    34    19    20   ar
    35    20    21   ar
    36    15    11   ar
    37    21    16   ar
    38     5     1   ar
    39    29    24   ar
    40     8     9    1
@<TRIPOS>MOLECULE
*****
 37 40 0 0 0
SMALL
GASTEIGER

@<TRIPOS>ATOM
      1 C          64.5596   89.8489   14.2002 C.ar    1  UNL1        0.0908
      2 C          63.4193   90.6825   13.6955 C.ar    1  UNL1        0.1363
      3 N          63.9461   92.0538   13.3924 N.ar    1  UNL1       -0.1661
      4 N          65.4121   92.0678   13.7097 N.ar    1  UNL1       -0.2459
      5 C          65.7913   90.7051   14.2089 C.ar    1  UNL1        0.1116
      6 C          63.8549   87.3961   13.7135 C.2     1  UNL1        0.2703
      7 O          63.3053   87.8180   12.3830 O.2     1  UNL1       -0.2681
      8 N          64.4821   88.4115   14.6220 N.am    1  UNL1       -0.2766
      9 H          64.8428   88.1346   15.4952 H       1  UNL1        0.1553
     10 C          62.6805   84.9325   11.9242 C.3     1  UNL1        0.0362
     11 C          63.2375   84.8264   13.3129 C.ar    1  UNL1        0.0421
     12 C          63.7773   85.9587   14.1353 C.ar    1  UNL1        0.1723
     13 N          64.2260   85.4014   15.4537 N.ar    1  UNL1       -0.0726
     14 O          63.9634   83.9245   15.4461 O.2     1  UNL1       -0.3520
     15 C          63.3525   83.5692   14.1230 C.ar    1  UNL1        0.1904
     16 C          62.9307   82.1975   13.6866 C.ar    1  UNL1        0.1181
     17 C          63.3819   81.6604   12.3607 C.ar    1  UNL1        0.0223
     18 C          62.9602   80.2887   11.9243 C.ar    1  UNL1        0.0032
     19 C          62.0871   79.4540   12.8137 C.ar    1  UNL1        0.0207
     20 C          61.6359   79.9911   14.1396 C.ar    1  UNL1        0.0989
     21 N          62.0577   81.3628   14.5761 N.ar    1  UNL1       -0.2407
     22 C          66.3366   93.2389   13.5549 C.3     1  UNL1        0.1274
     23 C          67.1505   93.7114   14.7229 C.3     1  UNL1        0.0312
     24 C          66.4471   93.9374   12.2321 C.ar    1  UNL1        0.0038
     25 C          65.7211   95.2299   12.0035 C.ar    1  UNL1       -0.0025
     26 C          65.8316   95.9284   10.6807 C.ar    1  UNL1        0.0036
     27 C          66.6682   95.3345    9.5865 C.ar    1  UNL1        0.0714
     28 C          67.3943   94.0420    9.8151 C.ar    1  UNL1        0.0074
     29 C          67.2837   93.3435   11.1378 C.ar    1  UNL1        0.0692
     30 C          66.7788   96.0330    8.2636 C.3     1  UNL1        0.4186
     31 F          66.8893   96.7315    6.9408 F       1  UNL1       -0.1659
     32 F          65.5585   96.8423    8.5890 F       1  UNL1       -0.1659
     33 F          67.9990   95.2237    7.9383 F       1  UNL1       -0.1659
     34 C          68.0098   92.0509   11.3665 C.3     1  UNL1        0.4183
     35 F          68.7358   90.7584   11.5951 F       1  UNL1       -0.1659
     36 F          68.4046   92.5152   12.7370 F       1  UNL1       -0.1659
     37 F          67.6149   91.5866    9.9959 F       1  UNL1       -0.1659
@<TRIPOS>BOND
     1    10    11    1
     2    11    12   ar
     3    12     6    1
     4     6     7    2
     5     6     8   am
     6     8     1    1
     7     1     2   ar
     8     2     3   ar
     9     3     4   ar
    10     4    22    1
    11    22    23    1
    12    22    24    1
    13    24    25   ar
    14    25    26   ar
    15    26    27   ar
    16    27    30    1
    17    30    31    1
    18    30    32    1
    19    30    33    1
    20    27    28   ar
    21    28    29   ar
    22    29    34    1
    23    34    35    1
    24    34    36    1
    25    34    37    1
    26     4     5   ar
    27    12    13   ar
    28    13    14   ar
    29    14    15   ar
    30    15    16    1
    31    16    17   ar
    32    17    18   ar
    33    18    19   ar
    34    19    20   ar
    35    20    21   ar
    36    15    11   ar
    37    21    16   ar
    38     5     1   ar
    39    29    24   ar
    40     8     9    1
@<TRIPOS>MOLECULE
*****
 37 40 0 0 0
SMALL
GASTEIGER

@<TRIPOS>ATOM
      1 C          62.8612   87.8736   12.3366 C.ar    1  UNL1        0.0908
      2 C          61.9851   88.8380   11.5934 C.ar    1  UNL1        0.1363
      3 N          62.4745   90.2262   11.8825 N.ar    1  UNL1       -0.1661
      4 N          63.6529   90.1197   12.8044 N.ar    1  UNL1       -0.2459
      5 C          63.8920   88.6657   13.0850 C.ar    1  UNL1        0.1116
      6 C          63.1655   85.5846   13.5273 C.2     1  UNL1        0.2703
      7 O          63.7329   86.2840   14.7269 O.2     1  UNL1       -0.2681
      8 N          62.7297   86.3793   12.3322 N.am    1  UNL1       -0.2766
      9 H          62.3573   85.9203   11.5449 H       1  UNL1        0.1553
     10 C          63.1772   83.6657   10.8877 C.3     1  UNL1        0.0362
     11 C          63.0394   83.2084   12.3096 C.ar    1  UNL1        0.0421
     12 C          63.0340   84.0904   13.5229 C.ar    1  UNL1        0.1723
     13 N          62.8739   83.2159   14.7311 N.ar    1  UNL1       -0.0726
     14 O          62.7804   81.7933   14.2644 O.2     1  UNL1       -0.3520
     15 C          62.8827   81.7887   12.7679 C.ar    1  UNL1        0.1904
     16 C          62.8363   80.5772   11.8847 C.ar    1  UNL1        0.1181
     17 C          63.0555   80.7172   10.4074 C.ar    1  UNL1        0.0223
     18 C          63.0092   79.5057    9.5242 C.ar    1  UNL1        0.0032
     19 C          62.7437   78.1541   10.1182 C.ar    1  UNL1        0.0207
     20 C          62.5246   78.0142   11.5955 C.ar    1  UNL1        0.0989
     21 N          62.5709   79.2257   12.4788 N.ar    1  UNL1       -0.2407
     22 C          64.4521   91.2659   13.3498 C.3     1  UNL1        0.1274
     23 C          64.5323   91.4865   14.8313 C.3     1  UNL1        0.0312
     24 C          65.1710   92.1916   12.4137 C.ar    1  UNL1        0.0038
     25 C          64.6182   92.4508   11.0436 C.ar    1  UNL1       -0.0025
     26 C          65.3371   93.3765   10.1076 C.ar    1  UNL1        0.0036
     27 C          66.6088   94.0430   10.5416 C.ar    1  UNL1        0.0714
     28 C          67.1617   93.7839   11.9117 C.ar    1  UNL1        0.0074
     29 C          66.4427   92.8582   12.8477 C.ar    1  UNL1        0.0692
     30 C          67.3278   94.9687    9.6055 C.3     1  UNL1        0.4186
     31 F          68.0466   95.8944    8.6694 F       1  UNL1       -0.1659
     32 F          67.7280   93.7990    8.7561 F       1  UNL1       -0.1659
     33 F          66.9275   96.1384   10.4549 F       1  UNL1       -0.1659
     34 C          66.9956   92.5990   14.2179 C.3     1  UNL1        0.4183
     35 F          67.5484   92.3398   15.5880 F       1  UNL1       -0.1659
     36 F          67.5890   91.3091   13.7344 F       1  UNL1       -0.1659
     37 F          66.4021   93.8889   14.7014 F       1  UNL1       -0.1659
@<TRIPOS>BOND
     1    10    11    1
     2    11    12   ar
     3    12     6    1
     4     6     7    2
     5     6     8   am
     6     8     1    1
     7     1     2   ar
     8     2     3   ar
     9     3     4   ar
    10     4    22    1
    11    22    23    1
    12    22    24    1
    13    24    25   ar
    14    25    26   ar
    15    26    27   ar
    16    27    30    1
    17    30    31    1
    18    30    32    1
    19    30    33    1
    20    27    28   ar
    21    28    29   ar
    22    29    34    1
    23    34    35    1
    24    34    36    1
    25    34    37    1
    26     4     5   ar
    27    12    13   ar
    28    13    14   ar
    29    14    15   ar
    30    15    16    1
    31    16    17   ar
    32    17    18   ar
    33    18    19   ar
    34    19    20   ar
    35    20    21   ar
    36    15    11   ar
    37    21    16   ar
    38     5     1   ar
    39    29    24   ar
    40     8     9    1
@<TRIPOS>MOLECULE
*****
 37 40 0 0 0
SMALL
GASTEIGER

@<TRIPOS>ATOM
      1 C          60.4970   89.3981    9.4389 C.ar    1  UNL1        0.0908
      2 C          59.8199   88.1612    9.9504 C.ar    1  UNL1        0.1363
      3 N          60.6543   87.6034   11.0651 N.ar    1  UNL1       -0.1661
      4 N          61.8470   88.4955   11.2426 N.ar    1  UNL1       -0.2459
      5 C          61.7498   89.6047   10.2375 C.ar    1  UNL1        0.1116
      6 C          59.5162   89.6599    7.0474 C.2     1  UNL1        0.2703
      7 O          59.5148   88.1687    6.8848 O.2     1  UNL1       -0.2681
      8 N          60.0073   90.2746    8.3244 N.am    1  UNL1       -0.2766
      9 H          60.0082   91.2533    8.4312 H       1  UNL1        0.1553
     10 C          61.3782   91.1540    4.8224 C.3     1  UNL1        0.0362
     11 C          59.8823   91.2231    4.9102 C.ar    1  UNL1        0.0421
     12 C          59.0265   90.5363    5.9329 C.ar    1  UNL1        0.1723
     13 N          57.5949   90.8799    5.6455 N.ar    1  UNL1       -0.0726
     14 O          57.5660   91.7790    4.4452 O.2     1  UNL1       -0.3520
     15 C          58.9797   91.9911    3.9908 C.ar    1  UNL1        0.1904
     16 C          59.4144   92.8249    2.8221 C.ar    1  UNL1        0.1181
     17 C          59.1378   92.3582    1.4235 C.ar    1  UNL1        0.0223
     18 C          59.5725   93.1918    0.2549 C.ar    1  UNL1        0.0032
     19 C          60.2839   94.4923    0.4846 C.ar    1  UNL1        0.0207
     20 C          60.5606   94.9590    1.8830 C.ar    1  UNL1        0.0989
     21 N          60.1259   94.1253    3.0518 N.ar    1  UNL1       -0.2407
     22 C          62.9443   88.3108   12.2485 C.3     1  UNL1        0.1274
     23 C          63.2513   86.9425   12.7809 C.3     1  UNL1        0.0312
     24 C          63.7346   89.4946   12.7221 C.ar    1  UNL1        0.0038
     25 C          64.0370   90.6207   11.7785 C.ar    1  UNL1       -0.0025
     26 C          64.8273   91.8043   12.2521 C.ar    1  UNL1        0.0036
     27 C          65.3152   91.8619   13.6693 C.ar    1  UNL1        0.0714
     28 C          65.0129   90.7358   14.6130 C.ar    1  UNL1        0.0074
     29 C          64.2226   89.5522   14.1394 C.ar    1  UNL1        0.0692
     30 C          66.1056   93.0456   14.1429 C.3     1  UNL1        0.4186
     31 F          66.8959   94.2293   14.6164 F       1  UNL1       -0.1659
     32 F          65.9693   92.5702   15.5590 F       1  UNL1       -0.1659
     33 F          66.2418   93.5211   12.7268 F       1  UNL1       -0.1659
     34 C          63.9202   88.4260   15.0830 C.3     1  UNL1        0.4183
     35 F          63.6178   87.3000   16.0266 F       1  UNL1       -0.1659
     36 F          62.6866   89.1439   15.5443 F       1  UNL1       -0.1659
     37 F          65.1539   87.7082   14.6217 F       1  UNL1       -0.1659
@<TRIPOS>BOND
     1    10    11    1
     2    11    12   ar
     3    12     6    1
     4     6     7    2
     5     6     8   am
     6     8     1    1
     7     1     2   ar
     8     2     3   ar
     9     3     4   ar
    10     4    22    1
    11    22    23    1
    12    22    24    1
    13    24    25   ar
    14    25    26   ar
    15    26    27   ar
    16    27    30    1
    17    30    31    1
    18    30    32    1
    19    30    33    1
    20    27    28   ar
    21    28    29   ar
    22    29    34    1
    23    34    35    1
    24    34    36    1
    25    34    37    1
    26     4     5   ar
    27    12    13   ar
    28    13    14   ar
    29    14    15   ar
    30    15    16    1
    31    16    17   ar
    32    17    18   ar
    33    18    19   ar
    34    19    20   ar
    35    20    21   ar
    36    15    11   ar
    37    21    16   ar
    38     5     1   ar
    39    29    24   ar
    40     8     9    1
@<TRIPOS>MOLECULE
*****
 37 40 0 0 0
SMALL
GASTEIGER

@<TRIPOS>ATOM
      1 C          59.9072   90.8311    5.4856 C.ar    1  UNL1        0.0908
      2 C          58.4450   90.5083    5.5741 C.ar    1  UNL1        0.1363
      3 N          58.2629   89.4728    6.6440 N.ar    1  UNL1       -0.1661
      4 N          59.6125   89.1556    7.2167 N.ar    1  UNL1       -0.2459
      5 C          60.6287   89.9951    6.5007 C.ar    1  UNL1        0.1116
      6 C          59.6873   92.5619    3.5606 C.2     1  UNL1        0.2703
      7 O          58.2075   92.3214    3.5133 O.2     1  UNL1       -0.2681
      8 N          60.5372   91.8167    4.5467 N.am    1  UNL1       -0.2766
      9 H          61.5085   91.9746    4.5777 H       1  UNL1        0.1553
     10 C          61.7913   91.8570    1.1676 C.3     1  UNL1        0.0362
     11 C          61.2844   93.2236    1.5218 C.ar    1  UNL1        0.0421
     12 C          60.3174   93.5476    2.6217 C.ar    1  UNL1        0.1723
     13 N          60.0909   95.0305    2.6180 N.ar    1  UNL1       -0.0726
     14 O          60.9180   95.6229    1.5157 O.2     1  UNL1       -0.3520
     15 C          61.6556   94.5062    0.8382 C.ar    1  UNL1        0.1904
     16 C          62.5989   94.6472   -0.3195 C.ar    1  UNL1        0.1181
     17 C          62.2805   93.9915   -1.6306 C.ar    1  UNL1        0.0223
     18 C          63.2237   94.1325   -2.7882 C.ar    1  UNL1        0.0032
     19 C          64.4854   94.9293   -2.6351 C.ar    1  UNL1        0.0207
     20 C          64.8037   95.5850   -1.3241 C.ar    1  UNL1        0.0989
     21 N          63.8605   95.4440   -0.1663 N.ar    1  UNL1       -0.2407
     22 C          59.8962   88.1718    8.3129 C.3     1  UNL1        0.1274
     23 C          59.2901   86.8005    8.2652 C.3     1  UNL1        0.0312
     24 C          60.7859   88.5592    9.4567 C.ar    1  UNL1        0.0038
     25 C          60.6669   89.9224   10.0711 C.ar    1  UNL1       -0.0025
     26 C          61.5566   90.3098   11.2149 C.ar    1  UNL1        0.0036
     27 C          62.5653   89.3340   11.7443 C.ar    1  UNL1        0.0714
     28 C          62.6843   87.9708   11.1300 C.ar    1  UNL1        0.0074
     29 C          61.7946   87.5834    9.9862 C.ar    1  UNL1        0.0692
     30 C          63.4550   89.7214   12.8882 C.3     1  UNL1        0.4186
     31 F          64.3447   90.1089   14.0320 F       1  UNL1       -0.1659
     32 F          63.8320   88.2827   13.0823 F       1  UNL1       -0.1659
     33 F          63.0780   91.1602   12.6940 F       1  UNL1       -0.1659
     34 C          61.9135   86.2201    9.3718 C.3     1  UNL1        0.4183
     35 F          62.0325   84.8569    8.7574 F       1  UNL1       -0.1659
     36 F          60.9652   85.6749   10.3981 F       1  UNL1       -0.1659
     37 F          62.8618   86.7654    8.3455 F       1  UNL1       -0.1659
@<TRIPOS>BOND
     1    10    11    1
     2    11    12   ar
     3    12     6    1
     4     6     7    2
     5     6     8   am
     6     8     1    1
     7     1     2   ar
     8     2     3   ar
     9     3     4   ar
    10     4    22    1
    11    22    23    1
    12    22    24    1
    13    24    25   ar
    14    25    26   ar
    15    26    27   ar
    16    27    30    1
    17    30    31    1
    18    30    32    1
    19    30    33    1
    20    27    28   ar
    21    28    29   ar
    22    29    34    1
    23    34    35    1
    24    34    36    1
    25    34    37    1
    26     4     5   ar
    27    12    13   ar
    28    13    14   ar
    29    14    15   ar
    30    15    16    1
    31    16    17   ar
    32    17    18   ar
    33    18    19   ar
    34    19    20   ar
    35    20    21   ar
    36    15    11   ar
    37    21    16   ar
    38     5     1   ar
    39    29    24   ar
    40     8     9    1
