@<TRIPOS>MOLECULE
*****
 31 34 0 0 0
SMALL
GASTEIGER

@<TRIPOS>ATOM
      1 C          63.7230   89.6869   15.1428 C.ar    1  UNL1        0.0672
      2 C          64.3113   88.6903   14.1885 C.ar    1  UNL1        0.0191
      3 C          64.3435   87.2348   14.5495 C.ar    1  UNL1        0.0411
      4 C          63.7874   86.7757   15.8648 C.ar    1  UNL1        0.1727
      5 C          63.1990   87.7723   16.8191 C.ar    1  UNL1        0.1757
      6 F          62.6429   87.3133   18.1344 F       1  UNL1       -0.2009
      7 C          63.1668   89.2279   16.4581 C.ar    1  UNL1        0.0486
      8 N          63.6907   91.1424   14.7818 N.pl3   1  UNL1       -0.2149
      9 H          63.1002   91.7584   15.2727 H       1  UNL1        0.1737
     10 O          65.3665   92.4383   14.6679 O.2     1  UNL1       -0.1499
     11 S          64.5584   91.6595   13.6727 S.O2    1  UNL1        0.0744
     12 O          63.7503   90.8807   12.6775 O.2     1  UNL1       -0.1499
     13 C          65.4260   92.1765   12.5637 C.ar    1  UNL1        0.1357
     14 C          64.8006   92.7897   11.3459 C.ar    1  UNL1        0.0219
     15 C          65.6682   93.3067   10.2369 C.ar    1  UNL1        0.0128
     16 C          67.1611   93.2105   10.3456 C.ar    1  UNL1        0.0586
     17 CL         68.0287   93.7275    9.2366 Cl      1  UNL1       -0.0822
     18 C          67.7865   92.5973   11.5633 C.ar    1  UNL1        0.0241
     19 C          66.9189   92.0802   12.6724 C.ar    1  UNL1        0.0773
     20 CL         67.5443   91.4670   13.8901 Cl      1  UNL1       -0.0808
     21 O          63.8196   85.3202   16.2258 O.3     1  UNL1       -0.4496
     22 C          63.4956   84.2835   15.1911 C.ar    1  UNL1        0.1645
     23 C          62.5068   83.1988   15.5002 C.ar    1  UNL1        0.1362
     24 N          62.1828   82.1622   14.4656 N.ar    1  UNL1       -0.2406
     25 C          62.8477   82.2102   13.1219 C.ar    1  UNL1        0.0815
     26 C          62.5237   81.1736   12.0873 C.ar    1  UNL1        0.0191
     27 C          63.1886   81.2216   10.7436 C.ar    1  UNL1        0.0015
     28 C          64.1775   82.3063   10.4345 C.ar    1  UNL1        0.0001
     29 C          64.5015   83.3430   11.4691 C.ar    1  UNL1        0.0016
     30 C          63.8366   83.2949   12.8128 C.ar    1  UNL1        0.0207
     31 C          64.1605   84.3316   13.8474 C.ar    1  UNL1        0.0406
@<TRIPOS>BOND
     1    10    11    2
     2    11    12    2
     3    11     8    1
     4     8     1    1
     5     1     2   ar
     6     2     3   ar
     7     3     4   ar
     8     4    21    1
     9    21    22    1
    10    22    23   ar
    11    23    24   ar
    12    24    25   ar
    13    25    26   ar
    14    26    27   ar
    15    27    28   ar
    16    28    29   ar
    17    29    30   ar
    18    30    31   ar
    19     4     5   ar
    20     5     6    1
    21     5     7   ar
    22    11    13    1
    23    13    14   ar
    24    14    15   ar
    25    15    16   ar
    26    16    17    1
    27    16    18   ar
    28    18    19   ar
    29    19    20    1
    30     7     1   ar
    31    19    13   ar
    32    31    22   ar
    33    30    25   ar
    34     8     9    1
@<TRIPOS>MOLECULE
*****
 31 34 0 0 0
SMALL
GASTEIGER

@<TRIPOS>ATOM
      1 C          63.5815   87.3293   15.7801 C.ar    1  UNL1        0.0672
      2 C          64.2319   87.6236   14.4609 C.ar    1  UNL1        0.0191
      3 C          64.5223   89.0416   14.0676 C.ar    1  UNL1        0.0411
      4 C          64.1624   90.1655   14.9935 C.ar    1  UNL1        0.1727
      5 C          63.5120   89.8713   16.3128 C.ar    1  UNL1        0.1757
      6 F          63.1521   90.9951   17.2387 F       1  UNL1       -0.2009
      7 C          63.2216   88.4532   16.7061 C.ar    1  UNL1        0.0486
      8 N          63.2911   85.9112   16.1734 N.pl3   1  UNL1       -0.2149
      9 H          63.1581   85.6807   17.1212 H       1  UNL1        0.1737
     10 O          61.7067   84.8710   15.2206 O.2     1  UNL1       -0.1499
     11 S          63.2032   84.8444   15.1225 S.O2    1  UNL1        0.0744
     12 O          64.6998   84.8179   15.0244 O.2     1  UNL1       -0.1499
     13 C          63.1155   83.7777   14.0717 C.ar    1  UNL1        0.1357
     14 C          63.2052   82.3319   14.4612 C.ar    1  UNL1        0.0219
     15 C          63.1174   81.2652   13.4104 C.ar    1  UNL1        0.0128
     16 C          62.9399   81.6441   11.9700 C.ar    1  UNL1        0.0586
     17 CL         62.8521   80.5774   10.9191 Cl      1  UNL1       -0.0822
     18 C          62.8501   83.0898   11.5804 C.ar    1  UNL1        0.0241
     19 C          62.9379   84.1567   12.6312 C.ar    1  UNL1        0.0773
     20 CL         62.8481   85.6024   12.2416 Cl      1  UNL1       -0.0808
     21 O          64.4528   91.5836   14.6002 O.3     1  UNL1       -0.4496
     22 C          65.5188   91.8774   13.5865 C.ar    1  UNL1        0.1645
     23 C          66.9395   91.4780   13.8548 C.ar    1  UNL1        0.1362
     24 N          68.0054   91.7718   12.8412 N.ar    1  UNL1       -0.2406
     25 C          67.6506   92.4651   11.5592 C.ar    1  UNL1        0.0815
     26 C          68.7165   92.7589   10.5456 C.ar    1  UNL1        0.0191
     27 C          68.3617   93.4522    9.2636 C.ar    1  UNL1        0.0015
     28 C          66.9410   93.8516    8.9952 C.ar    1  UNL1        0.0001
     29 C          65.8751   93.5578   10.0089 C.ar    1  UNL1        0.0016
     30 C          66.2299   92.8645   11.2908 C.ar    1  UNL1        0.0207
     31 C          65.1640   92.5707   12.3045 C.ar    1  UNL1        0.0406
@<TRIPOS>BOND
     1    10    11    2
     2    11    12    2
     3    11     8    1
     4     8     1    1
     5     1     2   ar
     6     2     3   ar
     7     3     4   ar
     8     4    21    1
     9    21    22    1
    10    22    23   ar
    11    23    24   ar
    12    24    25   ar
    13    25    26   ar
    14    26    27   ar
    15    27    28   ar
    16    28    29   ar
    17    29    30   ar
    18    30    31   ar
    19     4     5   ar
    20     5     6    1
    21     5     7   ar
    22    11    13    1
    23    13    14   ar
    24    14    15   ar
    25    15    16   ar
    26    16    17    1
    27    16    18   ar
    28    18    19   ar
    29    19    20    1
    30     7     1   ar
    31    19    13   ar
    32    31    22   ar
    33    30    25   ar
    34     8     9    1
@<TRIPOS>MOLECULE
*****
 31 34 0 0 0
SMALL
GASTEIGER

@<TRIPOS>ATOM
      1 C          63.1416   85.1791   16.2206 C.ar    1  UNL1        0.0672
      2 C          62.4660   86.0352   17.2504 C.ar    1  UNL1        0.0191
      3 C          62.6188   87.5266   17.2032 C.ar    1  UNL1        0.0411
      4 C          63.4474   88.1620   16.1263 C.ar    1  UNL1        0.1727
      5 C          64.1231   87.3058   15.0964 C.ar    1  UNL1        0.1757
      6 F          64.9516   87.9412   14.0195 F       1  UNL1       -0.2009
      7 C          63.9702   85.8144   15.1436 C.ar    1  UNL1        0.0486
      8 N          62.9887   83.6876   16.2678 N.pl3   1  UNL1       -0.2149
      9 H          62.9003   83.2290   17.1344 H       1  UNL1        0.1737
     10 O          61.5671   83.3528   14.7292 O.2     1  UNL1       -0.1499
     11 S          62.9707   82.8949   14.9944 S.O2    1  UNL1        0.0744
     12 O          64.3742   82.4371   15.2596 O.2     1  UNL1       -0.1499
     13 C          62.9527   82.1022   13.7211 C.ar    1  UNL1        0.1357
     14 C          62.5436   80.6592   13.7417 C.ar    1  UNL1        0.0219
     15 C          62.5256   79.8665   12.4685 C.ar    1  UNL1        0.0128
     16 C          62.9166   80.5168   11.1745 C.ar    1  UNL1        0.0586
     17 CL         62.8986   79.7241    9.9013 Cl      1  UNL1       -0.0822
     18 C          63.3256   81.9598   11.1539 C.ar    1  UNL1        0.0241
     19 C          63.3437   82.7525   12.4272 C.ar    1  UNL1        0.0773
     20 CL         63.7527   84.1955   12.4066 Cl      1  UNL1       -0.0808
     21 O          63.6002   89.6534   16.0791 O.3     1  UNL1       -0.4496
     22 C          63.8771   90.3380   14.7735 C.ar    1  UNL1        0.1645
     23 C          62.8977   90.2220   13.6433 C.ar    1  UNL1        0.1362
     24 N          63.1745   90.9066   12.3377 N.ar    1  UNL1       -0.2406
     25 C          64.4308   91.7073   12.1622 C.ar    1  UNL1        0.0815
     26 C          64.7077   92.3918   10.8566 C.ar    1  UNL1        0.0191
     27 C          65.9639   93.1924   10.6811 C.ar    1  UNL1        0.0015
     28 C          66.9434   93.3084   11.8113 C.ar    1  UNL1        0.0001
     29 C          66.6665   92.6238   13.1169 C.ar    1  UNL1        0.0016
     30 C          65.4103   91.8233   13.2924 C.ar    1  UNL1        0.0207
     31 C          65.1334   91.1386   14.5980 C.ar    1  UNL1        0.0406
@<TRIPOS>BOND
     1    10    11    2
     2    11    12    2
     3    11     8    1
     4     8     1    1
     5     1     2   ar
     6     2     3   ar
     7     3     4   ar
     8     4    21    1
     9    21    22    1
    10    22    23   ar
    11    23    24   ar
    12    24    25   ar
    13    25    26   ar
    14    26    27   ar
    15    27    28   ar
    16    28    29   ar
    17    29    30   ar
    18    30    31   ar
    19     4     5   ar
    20     5     6    1
    21     5     7   ar
    22    11    13    1
    23    13    14   ar
    24    14    15   ar
    25    15    16   ar
    26    16    17    1
    27    16    18   ar
    28    18    19   ar
    29    19    20    1
    30     7     1   ar
    31    19    13   ar
    32    31    22   ar
    33    30    25   ar
    34     8     9    1
@<TRIPOS>MOLECULE
*****
 31 34 0 0 0
SMALL
GASTEIGER

@<TRIPOS>ATOM
      1 C          63.4596   85.9218   16.2325 C.ar    1  UNL1        0.0672
      2 C          62.7444   86.6753   17.3144 C.ar    1  UNL1        0.0191
      3 C          62.7373   88.1753   17.3048 C.ar    1  UNL1        0.0411
      4 C          63.4454   88.9217   16.2133 C.ar    1  UNL1        0.1727
      5 C          64.1607   88.1681   15.1313 C.ar    1  UNL1        0.1757
      6 F          64.8688   88.9145   14.0398 F       1  UNL1       -0.2009
      7 C          64.1677   86.6681   15.1409 C.ar    1  UNL1        0.0486
      8 N          63.4666   84.4218   16.2421 N.pl3   1  UNL1       -0.2149
      9 H          63.5024   83.9352   17.0971 H       1  UNL1        0.1737
     10 O          62.2439   84.4854   14.5097 O.2     1  UNL1       -0.1499
     11 S          63.4191   83.6633   14.9488 S.O2    1  UNL1        0.0744
     12 O          64.5944   82.8412   15.3879 O.2     1  UNL1       -0.1499
     13 C          63.3717   82.9048   13.6556 C.ar    1  UNL1        0.1357
     14 C          64.2628   83.3060   12.5176 C.ar    1  UNL1        0.0219
     15 C          64.2153   82.5475   11.2244 C.ar    1  UNL1        0.0128
     16 C          63.2768   81.3878   11.0691 C.ar    1  UNL1        0.0586
     17 CL         63.2293   80.6293    9.7759 Cl      1  UNL1       -0.0822
     18 C          62.3857   80.9866   12.2070 C.ar    1  UNL1        0.0241
     19 C          62.4331   81.7451   13.5003 C.ar    1  UNL1        0.0773
     20 CL         61.5420   81.3438   14.6382 Cl      1  UNL1       -0.0808
     21 O          63.4384   90.4216   16.2037 O.3     1  UNL1       -0.4496
     22 C          64.2674   91.1691   15.2017 C.ar    1  UNL1        0.1645
     23 C          65.4665   91.9492   15.6529 C.ar    1  UNL1        0.1362
     24 N          66.2954   92.6967   14.6509 N.ar    1  UNL1       -0.2406
     25 C          65.9253   92.6642   13.1976 C.ar    1  UNL1        0.0815
     26 C          66.7543   93.4117   12.1957 C.ar    1  UNL1        0.0191
     27 C          66.3842   93.3791   10.7424 C.ar    1  UNL1        0.0015
     28 C          65.1851   92.5990   10.2912 C.ar    1  UNL1        0.0001
     29 C          64.3561   91.8515   11.2931 C.ar    1  UNL1        0.0016
     30 C          64.7262   91.8841   12.7464 C.ar    1  UNL1        0.0207
     31 C          63.8972   91.1365   13.7484 C.ar    1  UNL1        0.0406
@<TRIPOS>BOND
     1    10    11    2
     2    11    12    2
     3    11     8    1
     4     8     1    1
     5     1     2   ar
     6     2     3   ar
     7     3     4   ar
     8     4    21    1
     9    21    22    1
    10    22    23   ar
    11    23    24   ar
    12    24    25   ar
    13    25    26   ar
    14    26    27   ar
    15    27    28   ar
    16    28    29   ar
    17    29    30   ar
    18    30    31   ar
    19     4     5   ar
    20     5     6    1
    21     5     7   ar
    22    11    13    1
    23    13    14   ar
    24    14    15   ar
    25    15    16   ar
    26    16    17    1
    27    16    18   ar
    28    18    19   ar
    29    19    20    1
    30     7     1   ar
    31    19    13   ar
    32    31    22   ar
    33    30    25   ar
    34     8     9    1
@<TRIPOS>MOLECULE
*****
 31 34 0 0 0
SMALL
GASTEIGER

@<TRIPOS>ATOM
      1 C          64.5389   91.3411   12.7807 C.ar    1  UNL1        0.0672
      2 C          64.4161   90.1363   13.6656 C.ar    1  UNL1        0.0191
      3 C          63.2794   89.1767   13.4727 C.ar    1  UNL1        0.0411
      4 C          62.2655   89.4221   12.3949 C.ar    1  UNL1        0.1727
      5 C          62.3883   90.6270   11.5099 C.ar    1  UNL1        0.1757
      6 F          61.3744   90.8724   10.4321 F       1  UNL1       -0.2009
      7 C          63.5250   91.5866   11.7028 C.ar    1  UNL1        0.0486
      8 N          65.6757   92.3007   12.9736 N.pl3   1  UNL1       -0.2149
      9 H          66.1523   92.3325   13.8344 H       1  UNL1        0.1737
     10 O          66.5071   94.2486   12.8536 O.2     1  UNL1       -0.1499
     11 S          66.0861   93.2118   11.8548 S.O2    1  UNL1        0.0744
     12 O          65.6651   92.1749   10.8560 O.2     1  UNL1       -0.1499
     13 C          66.4965   94.1228   10.7361 C.ar    1  UNL1        0.1357
     14 C          65.8600   95.4740   10.5973 C.ar    1  UNL1        0.0219
     15 C          66.2704   96.3850    9.4785 C.ar    1  UNL1        0.0128
     16 C          67.3174   95.9449    8.4987 C.ar    1  UNL1        0.0586
     17 CL         67.7278   96.8559    7.3799 Cl      1  UNL1       -0.0822
     18 C          67.9539   94.5938    8.6375 C.ar    1  UNL1        0.0241
     19 C          67.5435   93.6827    9.7562 C.ar    1  UNL1        0.0773
     20 CL         68.1801   92.3316    9.8950 Cl      1  UNL1       -0.0808
     21 O          61.1288   88.4626   12.2020 O.3     1  UNL1       -0.4496
     22 C          60.9744   87.7349   10.8994 C.ar    1  UNL1        0.1645
     23 C          59.6964   87.8503   10.1227 C.ar    1  UNL1        0.1362
     24 N          59.5420   87.1227    8.8202 N.ar    1  UNL1       -0.2406
     25 C          60.6656   86.2795    8.2942 C.ar    1  UNL1        0.0815
     26 C          60.5112   85.5519    6.9917 C.ar    1  UNL1        0.0191
     27 C          61.6348   84.7088    6.4658 C.ar    1  UNL1        0.0015
     28 C          62.9129   84.5933    7.2425 C.ar    1  UNL1        0.0001
     29 C          63.0673   85.3210    8.5451 C.ar    1  UNL1        0.0016
     30 C          61.9437   86.1641    9.0709 C.ar    1  UNL1        0.0207
     31 C          62.0981   86.8918   10.3735 C.ar    1  UNL1        0.0406
@<TRIPOS>BOND
     1    10    11    2
     2    11    12    2
     3    11     8    1
     4     8     1    1
     5     1     2   ar
     6     2     3   ar
     7     3     4   ar
     8     4    21    1
     9    21    22    1
    10    22    23   ar
    11    23    24   ar
    12    24    25   ar
    13    25    26   ar
    14    26    27   ar
    15    27    28   ar
    16    28    29   ar
    17    29    30   ar
    18    30    31   ar
    19     4     5   ar
    20     5     6    1
    21     5     7   ar
    22    11    13    1
    23    13    14   ar
    24    14    15   ar
    25    15    16   ar
    26    16    17    1
    27    16    18   ar
    28    18    19   ar
    29    19    20    1
    30     7     1   ar
    31    19    13   ar
    32    31    22   ar
    33    30    25   ar
    34     8     9    1
@<TRIPOS>MOLECULE
*****
 31 34 0 0 0
SMALL
GASTEIGER

@<TRIPOS>ATOM
      1 C          62.4695   89.2506   12.0408 C.ar    1  UNL1        0.0672
      2 C          63.3843   88.8588   13.1631 C.ar    1  UNL1        0.0191
      3 C          64.5427   89.7388   13.5285 C.ar    1  UNL1        0.0411
      4 C          64.7863   91.0107   12.7717 C.ar    1  UNL1        0.1727
      5 C          63.8715   91.4026   11.6493 C.ar    1  UNL1        0.1757
      6 F          64.1151   92.6745   10.8924 F       1  UNL1       -0.2009
      7 C          62.7131   90.5226   11.2839 C.ar    1  UNL1        0.0486
      8 N          61.3111   88.3705   11.6754 N.pl3   1  UNL1       -0.2149
      9 H          60.4963   88.3746   12.2280 H       1  UNL1        0.1737
     10 O          61.5072   88.6937    9.5880 O.2     1  UNL1       -0.1499
     11 S          61.3941   87.4843   10.4680 S.O2    1  UNL1        0.0744
     12 O          61.2810   86.2749   11.3480 O.2     1  UNL1       -0.1499
     13 C          61.4771   86.5980    9.2607 C.ar    1  UNL1        0.1357
     14 C          62.7511   85.8688    8.9517 C.ar    1  UNL1        0.0219
     15 C          62.8341   84.9826    7.7444 C.ar    1  UNL1        0.0128
     16 C          61.6432   84.8254    6.8461 C.ar    1  UNL1        0.0586
     17 CL         61.7262   83.9392    5.6388 Cl      1  UNL1       -0.0822
     18 C          60.3693   85.5545    7.1550 C.ar    1  UNL1        0.0241
     19 C          60.2862   86.4409    8.3623 C.ar    1  UNL1        0.0773
     20 CL         59.0123   87.1700    8.6713 Cl      1  UNL1       -0.0808
     21 O          65.9448   91.8908   13.1371 O.3     1  UNL1       -0.4496
     22 C          66.2236   93.1321   12.3423 C.ar    1  UNL1        0.1645
     23 C          66.0863   94.4806   12.9848 C.ar    1  UNL1        0.1362
     24 N          66.3652   95.7218   12.1901 N.ar    1  UNL1       -0.2406
     25 C          66.7812   95.6146   10.7529 C.ar    1  UNL1        0.0815
     26 C          67.0600   96.8559    9.9583 C.ar    1  UNL1        0.0191
     27 C          67.4761   96.7486    8.5212 C.ar    1  UNL1        0.0015
     28 C          67.6133   95.4002    7.8787 C.ar    1  UNL1        0.0001
     29 C          67.3345   94.1589    8.6734 C.ar    1  UNL1        0.0016
     30 C          66.9185   94.2661   10.1105 C.ar    1  UNL1        0.0207
     31 C          66.6396   93.0248   10.9052 C.ar    1  UNL1        0.0406
@<TRIPOS>BOND
     1    10    11    2
     2    11    12    2
     3    11     8    1
     4     8     1    1
     5     1     2   ar
     6     2     3   ar
     7     3     4   ar
     8     4    21    1
     9    21    22    1
    10    22    23   ar
    11    23    24   ar
    12    24    25   ar
    13    25    26   ar
    14    26    27   ar
    15    27    28   ar
    16    28    29   ar
    17    29    30   ar
    18    30    31   ar
    19     4     5   ar
    20     5     6    1
    21     5     7   ar
    22    11    13    1
    23    13    14   ar
    24    14    15   ar
    25    15    16   ar
    26    16    17    1
    27    16    18   ar
    28    18    19   ar
    29    19    20    1
    30     7     1   ar
    31    19    13   ar
    32    31    22   ar
    33    30    25   ar
    34     8     9    1
@<TRIPOS>MOLECULE
*****
 31 34 0 0 0
SMALL
GASTEIGER

@<TRIPOS>ATOM
      1 C          60.7749   88.5221   10.5780 C.ar    1  UNL1        0.0672
      2 C          60.4516   89.8964   10.0714 C.ar    1  UNL1        0.0191
      3 C          59.7575   90.0655    8.7524 C.ar    1  UNL1        0.0411
      4 C          59.3867   88.8603    7.9401 C.ar    1  UNL1        0.1727
      5 C          59.7099   87.4859    8.4468 C.ar    1  UNL1        0.1757
      6 F          59.3391   86.2807    7.6344 F       1  UNL1       -0.2009
      7 C          60.4040   87.3168    9.7657 C.ar    1  UNL1        0.0486
      8 N          61.4690   88.3530   11.8970 N.pl3   1  UNL1       -0.2149
      9 H          61.1973   87.6297   12.5071 H       1  UNL1        0.1737
     10 O          61.6992   89.8879   13.3432 O.2     1  UNL1       -0.1499
     11 S          62.5771   89.2860   12.2864 S.O2    1  UNL1        0.0744
     12 O          63.4551   88.6842   11.2296 O.2     1  UNL1       -0.1499
     13 C          63.6853   90.2190   12.6757 C.ar    1  UNL1        0.1357
     14 C          64.4242   90.0095   13.9642 C.ar    1  UNL1        0.0219
     15 C          65.5323   90.9424   14.3536 C.ar    1  UNL1        0.0128
     16 C          65.9016   92.0849   13.4544 C.ar    1  UNL1        0.0586
     17 CL         67.0097   93.0178   13.8438 Cl      1  UNL1       -0.0822
     18 C          65.1628   92.2944   12.1660 C.ar    1  UNL1        0.0241
     19 C          64.0546   91.3614   11.7766 C.ar    1  UNL1        0.0773
     20 CL         63.3157   91.5709   10.4881 Cl      1  UNL1       -0.0808
     21 O          58.6926   89.0294    6.6212 O.3     1  UNL1       -0.4496
     22 C          59.1055   90.1325    5.6923 C.ar    1  UNL1        0.1645
     23 C          58.1210   91.1967    5.3074 C.ar    1  UNL1        0.1362
     24 N          58.5339   92.2998    4.3786 N.ar    1  UNL1       -0.2406
     25 C          59.9313   92.3388    3.8347 C.ar    1  UNL1        0.0815
     26 C          60.3442   93.4419    2.9060 C.ar    1  UNL1        0.0191
     27 C          61.7415   93.4808    2.3622 C.ar    1  UNL1        0.0015
     28 C          62.7261   92.4166    2.7471 C.ar    1  UNL1        0.0001
     29 C          62.3132   91.3135    3.6759 C.ar    1  UNL1        0.0016
     30 C          60.9158   91.2746    4.2197 C.ar    1  UNL1        0.0207
     31 C          60.5029   90.1714    5.1485 C.ar    1  UNL1        0.0406
@<TRIPOS>BOND
     1    10    11    2
     2    11    12    2
     3    11     8    1
     4     8     1    1
     5     1     2   ar
     6     2     3   ar
     7     3     4   ar
     8     4    21    1
     9    21    22    1
    10    22    23   ar
    11    23    24   ar
    12    24    25   ar
    13    25    26   ar
    14    26    27   ar
    15    27    28   ar
    16    28    29   ar
    17    29    30   ar
    18    30    31   ar
    19     4     5   ar
    20     5     6    1
    21     5     7   ar
    22    11    13    1
    23    13    14   ar
    24    14    15   ar
    25    15    16   ar
    26    16    17    1
    27    16    18   ar
    28    18    19   ar
    29    19    20    1
    30     7     1   ar
    31    19    13   ar
    32    31    22   ar
    33    30    25   ar
    34     8     9    1
@<TRIPOS>MOLECULE
*****
 31 34 0 0 0
SMALL
GASTEIGER

@<TRIPOS>ATOM
      1 C          62.3788   87.8237   10.7255 C.ar    1  UNL1        0.0672
      2 C          62.9057   88.0250   12.1154 C.ar    1  UNL1        0.0191
      3 C          63.3564   89.3858   12.5568 C.ar    1  UNL1        0.0411
      4 C          63.2804   90.5454   11.6084 C.ar    1  UNL1        0.1727
      5 C          62.7535   90.3441   10.2184 C.ar    1  UNL1        0.1757
      6 F          62.6774   91.5037    9.2700 F       1  UNL1       -0.2009
      7 C          62.3027   88.9833    9.7769 C.ar    1  UNL1        0.0486
      8 N          61.9281   86.4628   10.2840 N.pl3   1  UNL1       -0.2149
      9 H          61.3501   86.3684    9.4926 H       1  UNL1        0.1737
     10 O          61.4305   85.6201   12.1662 O.2     1  UNL1       -0.1499
     11 S          62.3580   85.2458   11.0483 S.O2    1  UNL1        0.0744
     12 O          63.2855   84.8714    9.9305 O.2     1  UNL1       -0.1499
     13 C          62.7879   84.0288   11.8126 C.ar    1  UNL1        0.1357
     14 C          62.4643   82.6610   11.2886 C.ar    1  UNL1        0.0219
     15 C          62.8942   81.4440   12.0528 C.ar    1  UNL1        0.0128
     16 C          63.6478   81.5948   13.3410 C.ar    1  UNL1        0.0586
     17 CL         64.0777   80.3778   14.1053 Cl      1  UNL1       -0.0822
     18 C          63.9714   82.9625   13.8650 C.ar    1  UNL1        0.0241
     19 C          63.5415   84.1796   13.1008 C.ar    1  UNL1        0.0773
     20 CL         63.8651   85.5473   13.6247 Cl      1  UNL1       -0.0808
     21 O          63.7311   91.9062   12.0499 O.3     1  UNL1       -0.4496
     22 C          65.1000   92.0896   12.6353 C.ar    1  UNL1        0.1645
     23 C          66.2889   92.2332   11.7320 C.ar    1  UNL1        0.1362
     24 N          67.6577   92.4165   12.3174 N.ar    1  UNL1       -0.2406
     25 C          67.8377   92.4563   13.8061 C.ar    1  UNL1        0.0815
     26 C          69.2065   92.6397   14.3915 C.ar    1  UNL1        0.0191
     27 C          69.3864   92.6795   15.8801 C.ar    1  UNL1        0.0015
     28 C          68.1974   92.5359   16.7833 C.ar    1  UNL1        0.0001
     29 C          66.8286   92.3525   16.1980 C.ar    1  UNL1        0.0016
     30 C          66.6487   92.3128   14.7093 C.ar    1  UNL1        0.0207
     31 C          65.2799   92.1294   14.1239 C.ar    1  UNL1        0.0406
@<TRIPOS>BOND
     1    10    11    2
     2    11    12    2
     3    11     8    1
     4     8     1    1
     5     1     2   ar
     6     2     3   ar
     7     3     4   ar
     8     4    21    1
     9    21    22    1
    10    22    23   ar
    11    23    24   ar
    12    24    25   ar
    13    25    26   ar
    14    26    27   ar
    15    27    28   ar
    16    28    29   ar
    17    29    30   ar
    18    30    31   ar
    19     4     5   ar
    20     5     6    1
    21     5     7   ar
    22    11    13    1
    23    13    14   ar
    24    14    15   ar
    25    15    16   ar
    26    16    17    1
    27    16    18   ar
    28    18    19   ar
    29    19    20    1
    30     7     1   ar
    31    19    13   ar
    32    31    22   ar
    33    30    25   ar
    34     8     9    1
@<TRIPOS>MOLECULE
*****
 31 34 0 0 0
SMALL
GASTEIGER

@<TRIPOS>ATOM
      1 C          62.8784   89.7797   12.7501 C.ar    1  UNL1        0.0672
      2 C          63.4455   88.4500   13.1504 C.ar    1  UNL1        0.0191
      3 C          63.3066   87.2693   12.2357 C.ar    1  UNL1        0.0411
      4 C          62.6007   87.4183   10.9207 C.ar    1  UNL1        0.1727
      5 C          62.0335   88.7480   10.5203 C.ar    1  UNL1        0.1757
      6 F          61.3276   88.8970    9.2052 F       1  UNL1       -0.2009
      7 C          62.1724   89.9287   11.4350 C.ar    1  UNL1        0.0486
      8 N          63.0173   90.9604   13.6648 N.pl3   1  UNL1       -0.2149
      9 H          62.2149   91.4356   13.9804 H       1  UNL1        0.1737
     10 O          64.2816   90.5485   15.3177 O.2     1  UNL1       -0.1499
     11 S          64.3787   91.4170   14.0985 S.O2    1  UNL1        0.0744
     12 O          64.4758   92.2855   12.8794 O.2     1  UNL1       -0.1499
     13 C          65.7401   91.8737   14.5322 C.ar    1  UNL1        0.1357
     14 C          66.9088   91.7365   13.6020 C.ar    1  UNL1        0.0219
     15 C          68.2702   92.1931   14.0358 C.ar    1  UNL1        0.0128
     16 C          68.4628   92.7870   15.3997 C.ar    1  UNL1        0.0586
     17 CL         69.8242   93.2436   15.8334 Cl      1  UNL1       -0.0822
     18 C          67.2942   92.9242   16.3298 C.ar    1  UNL1        0.0241
     19 C          65.9327   92.4675   15.8961 C.ar    1  UNL1        0.0773
     20 CL         64.7640   92.6047   16.8263 Cl      1  UNL1       -0.0808
     21 O          62.4618   86.2376   10.0060 O.3     1  UNL1       -0.4496
     22 C          62.7020   84.8520   10.5281 C.ar    1  UNL1        0.1645
     23 C          63.4368   83.8505    9.6872 C.ar    1  UNL1        0.1362
     24 N          63.6770   82.4650   10.2092 N.ar    1  UNL1       -0.2406
     25 C          63.1825   82.0809   11.5723 C.ar    1  UNL1        0.0815
     26 C          63.4228   80.6954   12.0944 C.ar    1  UNL1        0.0191
     27 C          62.9283   80.3113   13.4574 C.ar    1  UNL1        0.0015
     28 C          62.1935   81.3128   14.2984 C.ar    1  UNL1        0.0001
     29 C          61.9533   82.6983   13.7764 C.ar    1  UNL1        0.0016
     30 C          62.4478   83.0824   12.4133 C.ar    1  UNL1        0.0207
     31 C          62.2075   84.4679   11.8912 C.ar    1  UNL1        0.0406
@<TRIPOS>BOND
     1    10    11    2
     2    11    12    2
     3    11     8    1
     4     8     1    1
     5     1     2   ar
     6     2     3   ar
     7     3     4   ar
     8     4    21    1
     9    21    22    1
    10    22    23   ar
    11    23    24   ar
    12    24    25   ar
    13    25    26   ar
    14    26    27   ar
    15    27    28   ar
    16    28    29   ar
    17    29    30   ar
    18    30    31   ar
    19     4     5   ar
    20     5     6    1
    21     5     7   ar
    22    11    13    1
    23    13    14   ar
    24    14    15   ar
    25    15    16   ar
    26    16    17    1
    27    16    18   ar
    28    18    19   ar
    29    19    20    1
    30     7     1   ar
    31    19    13   ar
    32    31    22   ar
    33    30    25   ar
    34     8     9    1
