@<TRIPOS>MOLECULE
*****
 40 43 0 0 0
SMALL
GASTEIGER

@<TRIPOS>ATOM
      1 N          63.6814   87.1299   15.6881 N.am    1  UNL1       -0.2839
      2 C          63.1281   87.7524   16.9356 C.2     1  UNL1        0.2239
      3 O          62.7434   86.8869   18.0987 O.2     1  UNL1       -0.2751
      4 H          63.9340   87.6979   14.9248 H       1  UNL1        0.1512
      5 C          63.8499   85.6418   15.6038 C.3     1  UNL1        0.2237
      6 C          62.9803   85.0006   11.7851 C.ar    1  UNL1        0.0901
      7 N          63.2455   85.7133   13.0780 N.ar    1  UNL1       -0.1691
      8 N          63.5847   84.9290   14.3108 N.ar    1  UNL1       -0.1959
      9 C          63.6587   83.4321   14.2507 C.ar    1  UNL1        0.2801
     10 O          63.9979   82.6478   15.4835 O.2     1  UNL1       -0.2654
     11 C          63.3934   82.7193   12.9577 C.ar    1  UNL1        0.0862
     12 C          63.4674   81.2224   12.8976 C.ar    1  UNL1        0.1448
     13 F          63.8066   80.4381   14.1305 F       1  UNL1       -0.2040
     14 C          63.2022   80.5097   11.6047 C.ar    1  UNL1        0.0298
     15 C          62.8630   81.2940   10.3719 C.ar    1  UNL1        0.0023
     16 C          62.7890   82.7909   10.4320 C.ar    1  UNL1        0.0015
     17 C          63.0542   83.5036   11.7249 C.ar    1  UNL1        0.0226
     18 C          62.6411   85.7849   10.5522 C.3     1  UNL1        0.1569
     19 C          61.2786   86.3940   10.4021 C.2     1  UNL1        0.3231
     20 O          60.4548   86.0980    9.1839 O.2     1  UNL1       -0.2497
     21 O          60.7399   87.2992   11.4700 O.3     1  UNL1       -0.4482
     22 C          59.6062   89.5388   12.1399 C.3     1  UNL1        0.0513
     23 C          59.9671   88.5280   11.0921 C.3     1  UNL1        0.2086
     24 C          62.9596   89.2406   17.0200 C.3     1  UNL1        0.0865
     25 C          63.1955   90.0920   15.8079 C.3     1  UNL1        0.0269
     26 C          64.2057   91.1999   15.8546 C.3     1  UNL1        0.0727
     27 N          64.8930   91.6418   14.5967 N.3     1  UNL1       -0.2698
     28 C          66.2678   92.2378   14.6629 C.3     1  UNL1        0.0938
     29 C          66.9551   92.6798   13.4049 C.3     1  UNL1        0.1081
     30 N          66.2674   92.5256   12.0807 N.pl3   1  UNL1       -0.3049
     31 C          64.8925   91.9295   12.0146 C.3     1  UNL1        0.1081
     32 C          64.2053   91.4876   13.2725 C.3     1  UNL1        0.0938
     33 C          66.9546   92.9675   10.8228 C.ar    1  UNL1        0.0436
     34 C          67.8491   92.0171   10.0834 C.ar    1  UNL1        0.0142
     35 C          68.5364   92.4590    8.8254 C.ar    1  UNL1        0.0009
     36 C          68.3291   93.8512    8.3068 C.ar    1  UNL1       -0.0045
     37 C          67.4346   94.8015    9.0463 C.ar    1  UNL1       -0.0246
     38 C          67.2273   96.1937    8.5278 C.3     1  UNL1        0.0307
     39 C          66.7474   94.3596   10.3043 C.ar    1  UNL1       -0.0125
     40 C          65.8529   95.3100   11.0437 C.3     1  UNL1        0.0320
@<TRIPOS>BOND
     1    22    23    1
     2    23    21    1
     3    21    19    1
     4    19    20    2
     5    19    18    1
     6    18     6    1
     7     6     7   ar
     8     7     8   ar
     9     8     5    1
    10     5     1    1
    11     1     2   am
    12     2     3    2
    13     2    24    1
    14    24    25    1
    15    25    26    1
    16    26    27    1
    17    27    28    1
    18    28    29    1
    19    29    30    1
    20    30    33    1
    21    33    34   ar
    22    34    35   ar
    23    35    36   ar
    24    36    37   ar
    25    37    38    1
    26    37    39   ar
    27    39    40    1
    28    30    31    1
    29    31    32    1
    30     8     9   ar
    31     9    10    2
    32     9    11   ar
    33    11    12   ar
    34    12    13    1
    35    12    14   ar
    36    14    15   ar
    37    15    16   ar
    38    16    17   ar
    39    17     6   ar
    40    32    27    1
    41    17    11   ar
    42    39    33   ar
    43     1     4    1
@<TRIPOS>MOLECULE
*****
 40 43 0 0 0
SMALL
GASTEIGER

@<TRIPOS>ATOM
      1 N          64.2213   87.9099   15.1739 N.am    1  UNL1       -0.2839
      2 C          63.3011   88.0793   16.3464 C.2     1  UNL1        0.2239
      3 O          62.4754   86.9221   16.8250 O.2     1  UNL1       -0.2751
      4 H          64.7632   88.6694   14.8598 H       1  UNL1        0.1512
      5 C          64.3157   86.5834   14.4802 C.3     1  UNL1        0.2237
      6 C          62.6680   84.7301   11.3817 C.ar    1  UNL1        0.0901
      7 N          63.4112   84.9605   12.6641 N.ar    1  UNL1       -0.1691
      8 N          63.5725   86.3530   13.1977 N.ar    1  UNL1       -0.1959
      9 C          62.9907   87.5152   12.4489 C.ar    1  UNL1        0.2801
     10 O          63.1521   88.9078   12.9825 O.2     1  UNL1       -0.2654
     11 C          62.2476   87.2849   11.1664 C.ar    1  UNL1        0.0862
     12 C          61.6658   88.4471   10.4176 C.ar    1  UNL1        0.1448
     13 F          61.8271   89.8397   10.9512 F       1  UNL1       -0.2040
     14 C          60.9226   88.2168    9.1352 C.ar    1  UNL1        0.0298
     15 C          60.7613   86.8242    8.6016 C.ar    1  UNL1        0.0023
     16 C          61.3431   85.6620    9.3504 C.ar    1  UNL1        0.0015
     17 C          62.0862   85.8924   10.6328 C.ar    1  UNL1        0.0226
     18 C          62.5067   83.3376   10.8481 C.3     1  UNL1        0.1569
     19 C          63.4365   82.2497   11.2976 C.2     1  UNL1        0.3231
     20 O          64.8147   82.1521   10.7135 O.2     1  UNL1       -0.2497
     21 O          62.9881   81.2594   12.3312 O.3     1  UNL1       -0.4482
     22 C          61.1064   80.7969   14.0618 C.3     1  UNL1        0.0513
     23 C          62.1476   81.7117   13.4884 C.3     1  UNL1        0.2086
     24 C          63.2066   89.4059   17.0401 C.3     1  UNL1        0.0865
     25 C          63.2021   90.6732   16.2378 C.3     1  UNL1        0.0269
     26 C          64.4061   91.5678   16.2422 C.3     1  UNL1        0.0727
     27 N          65.0430   91.9747   14.9464 N.3     1  UNL1       -0.2698
     28 C          64.4151   91.5751   13.6441 C.3     1  UNL1        0.0938
     29 C          65.0519   91.9819   12.3484 C.3     1  UNL1        0.1081
     30 N          66.3167   92.7883   12.3550 N.pl3   1  UNL1       -0.3049
     31 C          66.9446   93.1879   13.6574 C.3     1  UNL1        0.1081
     32 C          66.3077   92.7811   14.9531 C.3     1  UNL1        0.0938
     33 C          66.9536   93.1951   11.0593 C.ar    1  UNL1        0.0436
     34 C          67.7555   92.2008   10.2731 C.ar    1  UNL1        0.0142
     35 C          68.3924   92.6076    8.9773 C.ar    1  UNL1        0.0009
     36 C          68.2274   94.0088    8.4679 C.ar    1  UNL1       -0.0045
     37 C          67.4254   95.0031    9.2542 C.ar    1  UNL1       -0.0246
     38 C          67.2604   96.4043    8.7447 C.3     1  UNL1        0.0307
     39 C          66.7886   94.5963   10.5499 C.ar    1  UNL1       -0.0125
     40 C          65.9867   95.5906   11.3361 C.3     1  UNL1        0.0320
@<TRIPOS>BOND
     1    22    23    1
     2    23    21    1
     3    21    19    1
     4    19    20    2
     5    19    18    1
     6    18     6    1
     7     6     7   ar
     8     7     8   ar
     9     8     5    1
    10     5     1    1
    11     1     2   am
    12     2     3    2
    13     2    24    1
    14    24    25    1
    15    25    26    1
    16    26    27    1
    17    27    28    1
    18    28    29    1
    19    29    30    1
    20    30    33    1
    21    33    34   ar
    22    34    35   ar
    23    35    36   ar
    24    36    37   ar
    25    37    38    1
    26    37    39   ar
    27    39    40    1
    28    30    31    1
    29    31    32    1
    30     8     9   ar
    31     9    10    2
    32     9    11   ar
    33    11    12   ar
    34    12    13    1
    35    12    14   ar
    36    14    15   ar
    37    15    16   ar
    38    16    17   ar
    39    17     6   ar
    40    32    27    1
    41    17    11   ar
    42    39    33   ar
    43     1     4    1
@<TRIPOS>MOLECULE
*****
 40 43 0 0 0
SMALL
GASTEIGER

@<TRIPOS>ATOM
      1 N          62.1758   86.0088   16.7058 N.am    1  UNL1       -0.2839
      2 C          63.2577   87.0357   16.5481 C.2     1  UNL1        0.2239
      3 O          64.5063   86.6990   15.7881 O.2     1  UNL1       -0.2751
      4 H          61.3563   86.2298   17.2046 H       1  UNL1        0.1512
      5 C          62.3425   84.6453   16.1034 C.3     1  UNL1        0.2237
      6 C          62.7094   85.5532   12.2575 C.ar    1  UNL1        0.0901
      7 N          62.4753   85.6982   13.7320 N.ar    1  UNL1       -0.1691
      8 N          62.5766   84.5002   14.6289 N.ar    1  UNL1       -0.1959
      9 C          62.9119   83.1571   14.0513 C.ar    1  UNL1        0.2801
     10 O          63.0132   81.9591   14.9482 O.2     1  UNL1       -0.2654
     11 C          63.1460   83.0120   12.5767 C.ar    1  UNL1        0.0862
     12 C          63.4813   81.6690   11.9991 C.ar    1  UNL1        0.1448
     13 F          63.5826   80.4709   12.8960 F       1  UNL1       -0.2040
     14 C          63.7154   81.5239   10.5247 C.ar    1  UNL1        0.0298
     15 C          63.6141   82.7220    9.6278 C.ar    1  UNL1        0.0023
     16 C          63.2788   84.0650   10.2054 C.ar    1  UNL1        0.0015
     17 C          63.0447   84.2101   11.6798 C.ar    1  UNL1        0.0226
     18 C          62.6081   86.7513   11.3606 C.3     1  UNL1        0.1569
     19 C          61.2853   87.1324   10.7648 C.2     1  UNL1        0.3231
     20 O          60.2686   87.8563   11.5969 O.2     1  UNL1       -0.2497
     21 O          60.9793   86.7898    9.3369 O.3     1  UNL1       -0.4482
     22 C          58.9941   86.8192    7.6610 C.3     1  UNL1        0.0513
     23 C          59.9159   87.5449    8.5958 C.3     1  UNL1        0.2086
     24 C          63.0911   88.3994   17.1504 C.3     1  UNL1        0.0865
     25 C          62.9545   89.6002   16.2620 C.3     1  UNL1        0.0269
     26 C          63.9084   90.7492   16.4023 C.3     1  UNL1        0.0727
     27 N          64.5025   91.3844   15.1801 N.3     1  UNL1       -0.2698
     28 C          63.9669   91.0423   13.8214 C.3     1  UNL1        0.0938
     29 C          64.5610   91.6775   12.5992 C.3     1  UNL1        0.1081
     30 N          65.6908   92.6547   12.7358 N.pl3   1  UNL1       -0.3049
     31 C          66.2265   92.9967   14.0946 C.3     1  UNL1        0.1081
     32 C          65.6323   92.3616   15.3167 C.3     1  UNL1        0.0938
     33 C          66.2849   93.2898   11.5137 C.ar    1  UNL1        0.0436
     34 C          65.7034   94.5618   10.9716 C.ar    1  UNL1        0.0142
     35 C          66.2976   95.1970    9.7494 C.ar    1  UNL1        0.0009
     36 C          67.4732   94.5601    9.0695 C.ar    1  UNL1       -0.0045
     37 C          68.0547   93.2881    9.6116 C.ar    1  UNL1       -0.0246
     38 C          69.2303   92.6513    8.9317 C.3     1  UNL1        0.0307
     39 C          67.4605   92.6530   10.8337 C.ar    1  UNL1       -0.0125
     40 C          68.0420   91.3810   11.3758 C.3     1  UNL1        0.0320
@<TRIPOS>BOND
     1    22    23    1
     2    23    21    1
     3    21    19    1
     4    19    20    2
     5    19    18    1
     6    18     6    1
     7     6     7   ar
     8     7     8   ar
     9     8     5    1
    10     5     1    1
    11     1     2   am
    12     2     3    2
    13     2    24    1
    14    24    25    1
    15    25    26    1
    16    26    27    1
    17    27    28    1
    18    28    29    1
    19    29    30    1
    20    30    33    1
    21    33    34   ar
    22    34    35   ar
    23    35    36   ar
    24    36    37   ar
    25    37    38    1
    26    37    39   ar
    27    39    40    1
    28    30    31    1
    29    31    32    1
    30     8     9   ar
    31     9    10    2
    32     9    11   ar
    33    11    12   ar
    34    12    13    1
    35    12    14   ar
    36    14    15   ar
    37    15    16   ar
    38    16    17   ar
    39    17     6   ar
    40    32    27    1
    41    17    11   ar
    42    39    33   ar
    43     1     4    1
@<TRIPOS>MOLECULE
*****
 40 43 0 0 0
SMALL
GASTEIGER

@<TRIPOS>ATOM
      1 N          61.9026   89.4462   10.2105 N.am    1  UNL1       -0.2839
      2 C          60.5290   89.7805    9.7093 C.2     1  UNL1        0.2239
      3 O          59.4975   90.3229   10.6536 O.2     1  UNL1       -0.2751
      4 H          62.5797   89.0902    9.5907 H       1  UNL1        0.1512
      5 C          62.2448   89.6542   11.6560 C.3     1  UNL1        0.2237
      6 C          65.0718   92.4252   11.3731 C.ar    1  UNL1        0.0901
      7 N          63.9837   91.4662   10.9905 N.ar    1  UNL1       -0.1691
      8 N          63.3329   90.6132   12.0387 N.ar    1  UNL1       -0.1959
      9 C          63.7701   90.7192   13.4696 C.ar    1  UNL1        0.2801
     10 O          63.1193   89.8663   14.5179 O.2     1  UNL1       -0.2654
     11 C          64.8582   91.6783   13.8523 C.ar    1  UNL1        0.0862
     12 C          65.2954   91.7843   15.2833 C.ar    1  UNL1        0.1448
     13 F          64.6446   90.9313   16.3315 F       1  UNL1       -0.2040
     14 C          66.3835   92.7433   15.6659 C.ar    1  UNL1        0.0298
     15 C          67.0343   93.5962   14.6176 C.ar    1  UNL1        0.0023
     16 C          66.5971   93.4902   13.1867 C.ar    1  UNL1        0.0015
     17 C          65.5090   92.5312   12.8041 C.ar    1  UNL1        0.0226
     18 C          65.7226   93.2781   10.3248 C.3     1  UNL1        0.1569
     19 C          67.1911   93.1411   10.0519 C.2     1  UNL1        0.3231
     20 O          67.8353   91.7866   10.0761 O.2     1  UNL1       -0.2497
     21 O          68.0156   94.3584    9.7547 O.3     1  UNL1       -0.4482
     22 C          67.2147   96.6859    8.9231 C.3     1  UNL1        0.0513
     23 C          67.6251   95.2729    8.6316 C.3     1  UNL1        0.2086
     24 C          60.1868   89.5724    8.2637 C.3     1  UNL1        0.0865
     25 C          59.6121   88.2633    7.8099 C.3     1  UNL1        0.0269
     26 C          60.5061   87.0713    7.6376 C.3     1  UNL1        0.0727
     27 N          61.1642   86.4482    8.8329 N.3     1  UNL1       -0.2698
     28 C          60.5660   86.6274   10.1968 C.3     1  UNL1        0.0938
     29 C          61.2241   86.0043   11.3921 C.3     1  UNL1        0.1081
     30 N          62.4803   85.2022   11.2235 N.pl3   1  UNL1       -0.3049
     31 C          63.0785   85.0230    9.8596 C.3     1  UNL1        0.1081
     32 C          62.4204   85.6461    8.6643 C.3     1  UNL1        0.0938
     33 C          63.1384   84.5791   12.4188 C.ar    1  UNL1        0.0436
     34 C          63.7757   85.4482   13.4621 C.ar    1  UNL1        0.0142
     35 C          64.4338   84.8252   14.6574 C.ar    1  UNL1        0.0009
     36 C          64.4547   83.3331   14.8094 C.ar    1  UNL1       -0.0045
     37 C          63.8174   82.4640   13.7660 C.ar    1  UNL1       -0.0246
     38 C          63.8382   80.9718   13.9180 C.3     1  UNL1        0.0307
     39 C          63.1593   83.0870   12.5708 C.ar    1  UNL1       -0.0125
     40 C          62.5220   82.2179   11.5275 C.3     1  UNL1        0.0320
@<TRIPOS>BOND
     1    22    23    1
     2    23    21    1
     3    21    19    1
     4    19    20    2
     5    19    18    1
     6    18     6    1
     7     6     7   ar
     8     7     8   ar
     9     8     5    1
    10     5     1    1
    11     1     2   am
    12     2     3    2
    13     2    24    1
    14    24    25    1
    15    25    26    1
    16    26    27    1
    17    27    28    1
    18    28    29    1
    19    29    30    1
    20    30    33    1
    21    33    34   ar
    22    34    35   ar
    23    35    36   ar
    24    36    37   ar
    25    37    38    1
    26    37    39   ar
    27    39    40    1
    28    30    31    1
    29    31    32    1
    30     8     9   ar
    31     9    10    2
    32     9    11   ar
    33    11    12   ar
    34    12    13    1
    35    12    14   ar
    36    14    15   ar
    37    15    16   ar
    38    16    17   ar
    39    17     6   ar
    40    32    27    1
    41    17    11   ar
    42    39    33   ar
    43     1     4    1
@<TRIPOS>MOLECULE
*****
 40 43 0 0 0
SMALL
GASTEIGER

@<TRIPOS>ATOM
      1 N          63.2590   86.3937   15.6377 N.am    1  UNL1       -0.2839
      2 C          63.8118   87.7879   15.6207 C.2     1  UNL1        0.2239
      3 O          64.8189   88.1828   14.5816 O.2     1  UNL1       -0.2751
      4 H          62.5980   86.1345   16.3197 H       1  UNL1        0.1512
      5 C          63.7133   85.3942   14.6156 C.3     1  UNL1        0.2237
      6 C          62.5212   87.1311   11.2522 C.ar    1  UNL1        0.0901
      7 N          62.8469   86.9225   12.7015 N.ar    1  UNL1       -0.1691
      8 N          63.3877   85.6028   13.1663 N.ar    1  UNL1       -0.1959
      9 C          63.6029   84.4918   12.1818 C.ar    1  UNL1        0.2801
     10 O          64.1437   83.1721   12.6466 O.2     1  UNL1       -0.2654
     11 C          63.2773   84.7003   10.7325 C.ar    1  UNL1        0.0862
     12 C          63.4925   83.5893    9.7480 C.ar    1  UNL1        0.1448
     13 F          64.0333   82.2696   10.2128 F       1  UNL1       -0.2040
     14 C          63.1669   83.7979    8.2987 C.ar    1  UNL1        0.0298
     15 C          62.6261   85.1175    7.8339 C.ar    1  UNL1        0.0023
     16 C          62.4108   86.2286    8.8184 C.ar    1  UNL1        0.0015
     17 C          62.7365   86.0200   10.2676 C.ar    1  UNL1        0.0226
     18 C          61.9804   88.4507   10.7874 C.3     1  UNL1        0.1569
     19 C          60.5034   88.7099   10.8214 C.2     1  UNL1        0.3231
     20 O          59.7156   88.3984   12.0593 O.2     1  UNL1       -0.2497
     21 O          59.8142   89.2805    9.6175 O.3     1  UNL1       -0.4482
     22 C          59.3158   89.2134    7.0685 C.3     1  UNL1        0.0513
     23 C          59.9674   88.6171    8.2809 C.3     1  UNL1        0.2086
     24 C          63.3575   88.7874   16.6428 C.3     1  UNL1        0.0865
     25 C          63.0262   90.1895   16.2253 C.3     1  UNL1        0.0269
     26 C          64.0843   91.2521   16.2601 C.3     1  UNL1        0.0727
     27 N          64.7884   91.6512   14.9971 N.3     1  UNL1       -0.2698
     28 C          64.1272   91.4323   13.6686 C.3     1  UNL1        0.0938
     29 C          64.8313   91.8313   12.4056 C.3     1  UNL1        0.1081
     30 N          66.1965   92.4493   12.4711 N.pl3   1  UNL1       -0.3049
     31 C          66.8576   92.6682   13.7997 C.3     1  UNL1        0.1081
     32 C          66.1536   92.2692   15.0626 C.3     1  UNL1        0.0938
     33 C          66.9005   92.8483   11.2082 C.ar    1  UNL1        0.0436
     34 C          67.7780   91.8626   10.4952 C.ar    1  UNL1        0.0142
     35 C          68.4821   92.2617    9.2322 C.ar    1  UNL1        0.0009
     36 C          68.3087   93.6464    8.6823 C.ar    1  UNL1       -0.0045
     37 C          67.4312   94.6321    9.3954 C.ar    1  UNL1       -0.0246
     38 C          67.2578   96.0169    8.8455 C.3     1  UNL1        0.0307
     39 C          66.7272   94.2331   10.6583 C.ar    1  UNL1       -0.0125
     40 C          65.8497   95.2188   11.3713 C.3     1  UNL1        0.0320
@<TRIPOS>BOND
     1    22    23    1
     2    23    21    1
     3    21    19    1
     4    19    20    2
     5    19    18    1
     6    18     6    1
     7     6     7   ar
     8     7     8   ar
     9     8     5    1
    10     5     1    1
    11     1     2   am
    12     2     3    2
    13     2    24    1
    14    24    25    1
    15    25    26    1
    16    26    27    1
    17    27    28    1
    18    28    29    1
    19    29    30    1
    20    30    33    1
    21    33    34   ar
    22    34    35   ar
    23    35    36   ar
    24    36    37   ar
    25    37    38    1
    26    37    39   ar
    27    39    40    1
    28    30    31    1
    29    31    32    1
    30     8     9   ar
    31     9    10    2
    32     9    11   ar
    33    11    12   ar
    34    12    13    1
    35    12    14   ar
    36    14    15   ar
    37    15    16   ar
    38    16    17   ar
    39    17     6   ar
    40    32    27    1
    41    17    11   ar
    42    39    33   ar
    43     1     4    1
@<TRIPOS>MOLECULE
*****
 40 43 0 0 0
SMALL
GASTEIGER

@<TRIPOS>ATOM
      1 N          61.5706   86.6353   10.1244 N.am    1  UNL1       -0.2839
      2 C          61.4850   86.3056    8.6636 C.2     1  UNL1        0.2239
      3 O          62.5831   85.5240    8.0055 O.2     1  UNL1       -0.2751
      4 H          60.8498   87.1483   10.5564 H       1  UNL1        0.1512
      5 C          62.7544   86.1833   10.9271 C.3     1  UNL1        0.2237
      6 C          62.2463   83.9200   14.1472 C.ar    1  UNL1        0.0901
      7 N          62.3541   85.1308   13.2685 N.ar    1  UNL1       -0.1691
      8 N          62.6466   84.9724   11.8058 N.ar    1  UNL1       -0.1959
      9 C          62.8313   83.6031   11.2219 C.ar    1  UNL1        0.2801
     10 O          63.1237   83.4447    9.7593 O.2     1  UNL1       -0.2654
     11 C          62.7235   82.3922   12.1007 C.ar    1  UNL1        0.0862
     12 C          62.9081   81.0230   11.5168 C.ar    1  UNL1        0.1448
     13 F          63.2006   80.8645   10.0541 F       1  UNL1       -0.2040
     14 C          62.8003   79.8122   12.3955 C.ar    1  UNL1        0.0298
     15 C          62.5078   79.9706   13.8582 C.ar    1  UNL1        0.0023
     16 C          62.3232   81.3398   14.4421 C.ar    1  UNL1        0.0015
     17 C          62.4310   82.5507   13.5633 C.ar    1  UNL1        0.0226
     18 C          61.9538   84.0784   15.6099 C.3     1  UNL1        0.1569
     19 C          62.7241   85.0744   16.4252 C.2     1  UNL1        0.3231
     20 O          64.1564   85.3697   16.0912 O.2     1  UNL1       -0.2497
     21 O          62.0621   85.7751   17.5745 O.3     1  UNL1       -0.4482
     22 C          62.9950   88.1788   17.2545 C.3     1  UNL1        0.0513
     23 C          62.6753   87.0178   18.1489 C.3     1  UNL1        0.2086
     24 C          60.3011   86.7576    7.8609 C.3     1  UNL1        0.0865
     25 C          59.3496   87.7672    8.4311 C.3     1  UNL1        0.0269
     26 C          59.7675   89.2019    8.5612 C.3     1  UNL1        0.0727
     27 N          60.7202   89.6102    9.6456 N.3     1  UNL1       -0.2698
     28 C          60.2599   89.6494   11.0727 C.3     1  UNL1        0.0938
     29 C          61.2125   90.0577   12.1571 C.3     1  UNL1        0.1081
     30 N          62.6254   90.4268   11.8144 N.pl3   1  UNL1       -0.3049
     31 C          63.0857   90.3876   10.3872 C.3     1  UNL1        0.1081
     32 C          62.1331   89.9793    9.3029 C.3     1  UNL1        0.0938
     33 C          63.5780   90.8350   12.8987 C.ar    1  UNL1        0.0436
     34 C          63.3641   90.3567   14.3041 C.ar    1  UNL1        0.0142
     35 C          64.3167   90.7650   15.3885 C.ar    1  UNL1        0.0009
     36 C          65.4832   91.6516   15.0674 C.ar    1  UNL1       -0.0045
     37 C          65.6971   92.1300   13.6618 C.ar    1  UNL1       -0.0246
     38 C          66.8636   93.0166   13.3407 C.3     1  UNL1        0.0307
     39 C          64.7445   91.7217   12.5775 C.ar    1  UNL1       -0.0125
     40 C          64.9584   92.2000   11.1721 C.3     1  UNL1        0.0320
@<TRIPOS>BOND
     1    22    23    1
     2    23    21    1
     3    21    19    1
     4    19    20    2
     5    19    18    1
     6    18     6    1
     7     6     7   ar
     8     7     8   ar
     9     8     5    1
    10     5     1    1
    11     1     2   am
    12     2     3    2
    13     2    24    1
    14    24    25    1
    15    25    26    1
    16    26    27    1
    17    27    28    1
    18    28    29    1
    19    29    30    1
    20    30    33    1
    21    33    34   ar
    22    34    35   ar
    23    35    36   ar
    24    36    37   ar
    25    37    38    1
    26    37    39   ar
    27    39    40    1
    28    30    31    1
    29    31    32    1
    30     8     9   ar
    31     9    10    2
    32     9    11   ar
    33    11    12   ar
    34    12    13    1
    35    12    14   ar
    36    14    15   ar
    37    15    16   ar
    38    16    17   ar
    39    17     6   ar
    40    32    27    1
    41    17    11   ar
    42    39    33   ar
    43     1     4    1
@<TRIPOS>MOLECULE
*****
 40 43 0 0 0
SMALL
GASTEIGER

@<TRIPOS>ATOM
      1 N          61.8960   87.4377   11.1126 N.am    1  UNL1       -0.2839
      2 C          60.7161   87.6556   10.2124 C.2     1  UNL1        0.2239
      3 O          60.4425   86.6991    9.0898 O.2     1  UNL1       -0.2751
      4 H          62.0756   88.0655   11.8494 H       1  UNL1        0.1512
      5 C          62.8023   86.2634   10.8901 C.3     1  UNL1        0.2237
      6 C          62.2686   83.9822   14.0935 C.ar    1  UNL1        0.0901
      7 N          62.3895   85.1981   13.2236 N.ar    1  UNL1       -0.1691
      8 N          62.6814   85.0473   11.7601 N.ar    1  UNL1       -0.1959
      9 C          62.8525   83.6805   11.1664 C.ar    1  UNL1        0.2801
     10 O          63.1444   83.5296    9.7028 O.2     1  UNL1       -0.2654
     11 C          62.7316   82.4644   12.0363 C.ar    1  UNL1        0.0862
     12 C          62.9027   81.0976   11.4426 C.ar    1  UNL1        0.1448
     13 F          63.1946   80.9467    9.9791 F       1  UNL1       -0.2040
     14 C          62.7818   79.8816   12.3125 C.ar    1  UNL1        0.0298
     15 C          62.4899   80.0325   13.7761 C.ar    1  UNL1        0.0023
     16 C          62.3188   81.3993   14.3698 C.ar    1  UNL1        0.0015
     17 C          62.4397   82.6153   13.4999 C.ar    1  UNL1        0.0226
     18 C          61.9767   84.1330   15.5571 C.3     1  UNL1        0.1569
     19 C          62.7309   85.1413   16.3723 C.2     1  UNL1        0.3231
     20 O          64.2058   85.3209   16.1657 O.2     1  UNL1       -0.2497
     21 O          62.0103   85.9700   17.3940 O.3     1  UNL1       -0.4482
     22 C          63.0011   88.3628   17.1865 C.3     1  UNL1        0.0513
     23 C          62.6918   87.1524   18.0167 C.3     1  UNL1        0.2086
     24 C          59.8097   88.8300   10.4349 C.3     1  UNL1        0.0865
     25 C          60.3875   90.2069   10.5770 C.3     1  UNL1        0.0269
     26 C          61.7842   90.4864   10.1068 C.3     1  UNL1        0.0727
     27 N          62.8500   90.8515   11.0972 N.3     1  UNL1       -0.2698
     28 C          63.9287   91.8211   10.7148 C.3     1  UNL1        0.0938
     29 C          64.9945   92.1862   11.7052 C.3     1  UNL1        0.1081
     30 N          64.9816   91.5817   13.0779 N.pl3   1  UNL1       -0.3049
     31 C          63.9028   90.6120   13.4603 C.3     1  UNL1        0.1081
     32 C          62.8371   90.2470   12.4699 C.3     1  UNL1        0.0938
     33 C          66.0474   91.9468   14.0682 C.ar    1  UNL1        0.0436
     34 C          65.6768   92.2592   15.4877 C.ar    1  UNL1        0.0142
     35 C          66.7426   92.6243   16.4782 C.ar    1  UNL1        0.0009
     36 C          68.1789   92.6769   16.0490 C.ar    1  UNL1       -0.0045
     37 C          68.5495   92.3645   14.6294 C.ar    1  UNL1       -0.0246
     38 C          69.9858   92.4172   14.2003 C.3     1  UNL1        0.0307
     39 C          67.4837   91.9994   13.6391 C.ar    1  UNL1       -0.0125
     40 C          67.8543   91.6871   12.2196 C.3     1  UNL1        0.0320
@<TRIPOS>BOND
     1    22    23    1
     2    23    21    1
     3    21    19    1
     4    19    20    2
     5    19    18    1
     6    18     6    1
     7     6     7   ar
     8     7     8   ar
     9     8     5    1
    10     5     1    1
    11     1     2   am
    12     2     3    2
    13     2    24    1
    14    24    25    1
    15    25    26    1
    16    26    27    1
    17    27    28    1
    18    28    29    1
    19    29    30    1
    20    30    33    1
    21    33    34   ar
    22    34    35   ar
    23    35    36   ar
    24    36    37   ar
    25    37    38    1
    26    37    39   ar
    27    39    40    1
    28    30    31    1
    29    31    32    1
    30     8     9   ar
    31     9    10    2
    32     9    11   ar
    33    11    12   ar
    34    12    13    1
    35    12    14   ar
    36    14    15   ar
    37    15    16   ar
    38    16    17   ar
    39    17     6   ar
    40    32    27    1
    41    17    11   ar
    42    39    33   ar
    43     1     4    1
@<TRIPOS>MOLECULE
*****
 40 43 0 0 0
SMALL
GASTEIGER

@<TRIPOS>ATOM
      1 N          60.9426   89.5565    9.6161 N.am    1  UNL1       -0.2839
      2 C          60.1977   88.9225    8.4789 C.2     1  UNL1        0.2239
      3 O          60.3590   87.4574    8.2008 O.2     1  UNL1       -0.2751
      4 H          60.8367   90.5181    9.7986 H       1  UNL1        0.1512
      5 C          61.8486   88.7253   10.4752 C.3     1  UNL1        0.2237
      6 C          63.9044   89.4301   13.7959 C.ar    1  UNL1        0.0901
      7 N          62.9905   88.7669   12.8085 N.ar    1  UNL1       -0.1691
      8 N          62.7626   89.3885   11.4626 N.ar    1  UNL1       -0.1959
      9 C          63.4485   90.6734   11.1040 C.ar    1  UNL1        0.2801
     10 O          63.2205   91.2950    9.7580 O.2     1  UNL1       -0.2654
     11 C          64.3624   91.3366   12.0914 C.ar    1  UNL1        0.0862
     12 C          65.0484   92.6215   11.7328 C.ar    1  UNL1        0.1448
     13 F          64.8204   93.2431   10.3868 F       1  UNL1       -0.2040
     14 C          65.9623   93.2847   12.7201 C.ar    1  UNL1        0.0298
     15 C          66.1902   92.6630   14.0661 C.ar    1  UNL1        0.0023
     16 C          65.5043   91.3782   14.4247 C.ar    1  UNL1        0.0015
     17 C          64.5904   90.7150   13.4373 C.ar    1  UNL1        0.0226
     18 C          64.1324   88.8085   15.1419 C.3     1  UNL1        0.1569
     19 C          63.2357   89.1598   16.2918 C.2     1  UNL1        0.3231
     20 O          63.1647   90.5756   16.7822 O.2     1  UNL1       -0.2497
     21 O          62.4099   88.0953   16.9514 O.3     1  UNL1       -0.4482
     22 C          62.4688   85.5133   16.6681 C.3     1  UNL1        0.0513
     23 C          63.0229   86.7661   17.2793 C.3     1  UNL1        0.2086
     24 C          59.2916   89.7537    7.6197 C.3     1  UNL1        0.0865
     25 C          59.5331   89.8431    6.1420 C.3     1  UNL1        0.0269
     26 C          59.0891   91.0574    5.3816 C.3     1  UNL1        0.0727
     27 N          60.0008   91.6821    4.3674 N.3     1  UNL1       -0.2698
     28 C          61.4212   91.2151    4.2473 C.3     1  UNL1        0.0938
     29 C          62.3329   91.8399    3.2331 C.3     1  UNL1        0.1081
     30 N          61.8242   92.9315    2.3390 N.pl3   1  UNL1       -0.3049
     31 C          60.4037   93.3985    2.4591 C.3     1  UNL1        0.1081
     32 C          59.4921   92.7738    3.4733 C.3     1  UNL1        0.0938
     33 C          62.7358   93.5563    1.3248 C.ar    1  UNL1        0.0436
     34 C          63.9129   94.3698    1.7748 C.ar    1  UNL1        0.0142
     35 C          64.8246   94.9946    0.7606 C.ar    1  UNL1        0.0009
     36 C          64.5592   94.8057   -0.7036 C.ar    1  UNL1       -0.0045
     37 C          63.3820   93.9921   -1.1536 C.ar    1  UNL1       -0.0246
     38 C          63.1165   93.8033   -2.6178 C.3     1  UNL1        0.0307
     39 C          62.4704   93.3674   -0.1394 C.ar    1  UNL1       -0.0125
     40 C          61.2933   92.5539   -0.5894 C.3     1  UNL1        0.0320
@<TRIPOS>BOND
     1    22    23    1
     2    23    21    1
     3    21    19    1
     4    19    20    2
     5    19    18    1
     6    18     6    1
     7     6     7   ar
     8     7     8   ar
     9     8     5    1
    10     5     1    1
    11     1     2   am
    12     2     3    2
    13     2    24    1
    14    24    25    1
    15    25    26    1
    16    26    27    1
    17    27    28    1
    18    28    29    1
    19    29    30    1
    20    30    33    1
    21    33    34   ar
    22    34    35   ar
    23    35    36   ar
    24    36    37   ar
    25    37    38    1
    26    37    39   ar
    27    39    40    1
    28    30    31    1
    29    31    32    1
    30     8     9   ar
    31     9    10    2
    32     9    11   ar
    33    11    12   ar
    34    12    13    1
    35    12    14   ar
    36    14    15   ar
    37    15    16   ar
    38    16    17   ar
    39    17     6   ar
    40    32    27    1
    41    17    11   ar
    42    39    33   ar
    43     1     4    1
@<TRIPOS>MOLECULE
*****
 40 43 0 0 0
SMALL
GASTEIGER

@<TRIPOS>ATOM
      1 N          63.5829   88.7381   16.9134 N.am    1  UNL1       -0.2839
      2 C          62.5934   87.6237   17.0837 C.2     1  UNL1        0.2239
      3 O          61.1414   87.8585   16.7896 O.2     1  UNL1       -0.2751
      4 H          64.5359   88.5840   17.1064 H       1  UNL1        0.1512
      5 C          63.1204   90.0872   16.4488 C.3     1  UNL1        0.2237
      6 C          65.5180   92.0700   13.9850 C.ar    1  UNL1        0.0901
      7 N          64.9548   91.4759   15.2419 N.ar    1  UNL1       -0.1691
      8 N          63.6835   90.6813   15.1918 N.ar    1  UNL1       -0.1959
      9 C          62.9755   90.4808   13.8848 C.ar    1  UNL1        0.2801
     10 O          61.7042   89.6863   13.8346 O.2     1  UNL1       -0.2654
     11 C          63.5386   91.0750   12.6278 C.ar    1  UNL1        0.0862
     12 C          62.8305   90.8745   11.3208 C.ar    1  UNL1        0.1448
     13 F          61.5593   90.0799   11.2706 F       1  UNL1       -0.2040
     14 C          63.3937   91.4686   10.0639 C.ar    1  UNL1        0.0298
     15 C          64.6650   92.2632   10.1140 C.ar    1  UNL1        0.0023
     16 C          65.3731   92.4637   11.4210 C.ar    1  UNL1        0.0015
     17 C          64.8099   91.8695   12.6779 C.ar    1  UNL1        0.0226
     18 C          66.7893   92.8646   14.0352 C.3     1  UNL1        0.1569
     19 C          68.1079   92.1848   13.8137 C.2     1  UNL1        0.3231
     20 O          68.4675   91.6715   12.4508 O.2     1  UNL1       -0.2497
     21 O          69.0669   92.0182   14.9549 O.3     1  UNL1       -0.4482
     22 C          69.0514   94.3178   16.1640 C.3     1  UNL1        0.0513
     23 C          68.8915   92.8269   16.2061 C.3     1  UNL1        0.2086
     24 C          63.0559   86.2745   17.5483 C.3     1  UNL1        0.0865
     25 C          63.4778   85.2405   16.5470 C.3     1  UNL1        0.0269
     26 C          64.2818   85.6432   15.3465 C.3     1  UNL1        0.0727
     27 N          63.6289   85.7212   13.9982 N.3     1  UNL1       -0.2698
     28 C          63.5560   87.0333   13.2750 C.3     1  UNL1        0.0938
     29 C          62.9031   87.1113   11.9267 C.3     1  UNL1        0.1081
     30 N          62.3230   85.8772   11.3018 N.pl3   1  UNL1       -0.3049
     31 C          62.3958   84.5651   12.0252 C.3     1  UNL1        0.1081
     32 C          63.0488   84.4871   13.3733 C.3     1  UNL1        0.0938
     33 C          61.6701   85.9551    9.9537 C.ar    1  UNL1        0.0436
     34 C          60.4193   86.7628    9.7718 C.ar    1  UNL1        0.0142
     35 C          59.7663   86.8408    8.4236 C.ar    1  UNL1        0.0009
     36 C          60.3641   86.1111    7.2573 C.ar    1  UNL1       -0.0045
     37 C          61.6150   85.3034    7.4393 C.ar    1  UNL1       -0.0246
     38 C          62.2129   84.5737    6.2731 C.3     1  UNL1        0.0307
     39 C          62.2679   85.2254    8.7875 C.ar    1  UNL1       -0.0125
     40 C          63.5187   84.4178    8.9694 C.3     1  UNL1        0.0320
@<TRIPOS>BOND
     1    22    23    1
     2    23    21    1
     3    21    19    1
     4    19    20    2
     5    19    18    1
     6    18     6    1
     7     6     7   ar
     8     7     8   ar
     9     8     5    1
    10     5     1    1
    11     1     2   am
    12     2     3    2
    13     2    24    1
    14    24    25    1
    15    25    26    1
    16    26    27    1
    17    27    28    1
    18    28    29    1
    19    29    30    1
    20    30    33    1
    21    33    34   ar
    22    34    35   ar
    23    35    36   ar
    24    36    37   ar
    25    37    38    1
    26    37    39   ar
    27    39    40    1
    28    30    31    1
    29    31    32    1
    30     8     9   ar
    31     9    10    2
    32     9    11   ar
    33    11    12   ar
    34    12    13    1
    35    12    14   ar
    36    14    15   ar
    37    15    16   ar
    38    16    17   ar
    39    17     6   ar
    40    32    27    1
    41    17    11   ar
    42    39    33   ar
    43     1     4    1
