@<TRIPOS>MOLECULE
*****
 34 36 0 0 0
SMALL
GASTEIGER

@<TRIPOS>ATOM
      1 C          63.7214   86.4340   15.3241 C.ar    1  UNL1        0.0528
      2 C          64.3602   87.5962   14.6234 C.ar    1  UNL1        0.0167
      3 C          64.2197   88.9799   15.1851 C.ar    1  UNL1        0.0505
      4 C          63.4403   89.2014   16.4474 C.ar    1  UNL1        0.0170
      5 C          62.8014   88.0392   17.1481 C.ar    1  UNL1        0.0307
      6 C          62.9419   86.6555   16.5864 C.ar    1  UNL1        0.1402
      7 F          62.3030   85.4931   17.2871 F       1  UNL1       -0.2044
      8 C          64.1203   84.7699   16.2133 C.3     1  UNL1        0.0607
      9 C          63.8619   85.0501   14.7625 C.3     1  UNL1        0.2223
     10 C          63.5547   85.8109   13.5068 C.3     1  UNL1        0.1959
     11 O          63.4778   85.0906   12.1933 O.3     1  UNL1       -0.3357
     12 C          63.7081   83.6095   12.1356 C.3     1  UNL1        0.2740
     13 C          63.8486   82.2257   11.5740 C.3     1  UNL1        0.0512
     14 C          64.0152   82.8487   13.3913 C.2     1  UNL1        0.3217
     15 N          64.2455   81.3676   13.3335 N.pl3   1  UNL1       -0.2480
     16 N          64.0922   83.5690   14.7047 N.2     1  UNL1       -0.0692
     17 H          64.1950   80.8948   12.4714 H       1  UNL1        0.2882
     18 H          64.4471   80.8683   14.1577 H       1  UNL1        0.2882
     19 C          63.4497   83.8897   10.6848 C.3     1  UNL1        0.4305
     20 F          63.1913   84.1699    9.2340 F       1  UNL1       -0.1670
     21 F          64.7822   83.2974   10.3330 F       1  UNL1       -0.1670
     22 F          62.1172   84.4819   11.0365 F       1  UNL1       -0.1670
     23 N          64.8586   90.1423   14.4844 N.am    1  UNL1       -0.2791
     24 C          64.2079   90.7358   13.2702 C.2     1  UNL1        0.2672
     25 O          62.9184   90.1671   12.7566 O.2     1  UNL1       -0.2682
     26 H          65.7049   90.5155   14.8214 H       1  UNL1        0.1552
     27 C          64.8468   91.8981   12.5695 C.ar    1  UNL1        0.1348
     28 C          64.6912   92.0573   11.0861 C.ar    1  UNL1        0.0245
     29 C          65.3301   93.2196   10.3854 C.ar    1  UNL1        0.0135
     30 C          66.1245   94.2227   11.1682 C.ar    1  UNL1        0.0876
     31 C          66.2800   94.0636   12.6516 C.ar    1  UNL1        0.1092
     32 N          65.6412   92.9013   13.3522 N.ar    1  UNL1       -0.2385
     33 C          66.7633   95.3850   10.4675 C.1     1  UNL1        0.1020
     34 N          67.4021   96.5473    9.7667 N.1     1  UNL1       -0.1908
@<TRIPOS>BOND
     1     9     8    1
     2     9     1    1
     3     1     2   ar
     4     2     3   ar
     5     3    23    1
     6    23    24   am
     7    24    25    2
     8    24    27    1
     9    27    28   ar
    10    28    29   ar
    11    29    30   ar
    12    30    33    1
    13    33    34    3
    14    30    31   ar
    15    31    32   ar
    16     3     4   ar
    17     4     5   ar
    18     5     6   ar
    19     6     7    1
    20     9    10    1
    21    10    11    1
    22    11    12    1
    23    12    13    1
    24    12    19    1
    25    19    20    1
    26    19    21    1
    27    19    22    1
    28    12    14    1
    29    14    15    1
    30    14    16    2
    31    16     9    1
    32     6     1   ar
    33    32    27   ar
    34    23    26    1
    35    15    17    1
    36    15    18    1
@<TRIPOS>MOLECULE
*****
 34 36 0 0 0
SMALL
GASTEIGER

@<TRIPOS>ATOM
      1 C          63.9279   89.2021   14.7491 C.ar    1  UNL1        0.0528
      2 C          63.9354   87.8168   14.1739 C.ar    1  UNL1        0.0167
      3 C          63.5530   86.6468   15.0311 C.ar    1  UNL1        0.0505
      4 C          63.1632   86.8621   16.4635 C.ar    1  UNL1        0.0170
      5 C          63.1558   88.2474   17.0387 C.ar    1  UNL1        0.0307
      6 C          63.5381   89.4174   16.1815 C.ar    1  UNL1        0.1402
      7 F          63.5307   90.8028   16.7567 F       1  UNL1       -0.2044
      8 C          63.0273   89.9702   13.2267 C.3     1  UNL1        0.0607
      9 C          64.3103   90.3722   13.8919 C.3     1  UNL1        0.2223
     10 C          65.4604   90.3679   14.8548 C.3     1  UNL1        0.1959
     11 O          66.5473   91.3940   14.7295 O.3     1  UNL1       -0.3357
     12 C          66.4841   92.4244   13.6412 C.3     1  UNL1        0.2740
     13 C          66.8664   93.5945   12.7840 C.3     1  UNL1        0.0512
     14 C          65.3340   92.4288   12.6784 C.2     1  UNL1        0.3217
     15 N          65.2708   93.4593   11.5901 N.pl3   1  UNL1       -0.2480
     16 N          64.2471   91.4027   12.8037 N.2     1  UNL1       -0.0692
     17 H          65.9841   94.1327   11.5079 H       1  UNL1        0.2882
     18 H          64.5159   93.4621   10.9582 H       1  UNL1        0.2882
     19 C          67.7671   92.8265   14.3064 C.3     1  UNL1        0.4305
     20 F          69.0500   93.2285   14.9716 F       1  UNL1       -0.1670
     21 F          67.0508   93.9366   15.0169 F       1  UNL1       -0.1670
     22 F          68.4832   91.7164   13.5959 F       1  UNL1       -0.1670
     23 N          63.5604   85.2615   14.4559 N.am    1  UNL1       -0.2791
     24 C          62.9110   84.9964   13.1300 C.2     1  UNL1        0.2672
     25 O          62.2541   86.1167   12.3793 O.2     1  UNL1       -0.2682
     26 H          63.9916   84.5262   14.9486 H       1  UNL1        0.1552
     27 C          62.9184   83.6111   12.5548 C.ar    1  UNL1        0.1348
     28 C          63.4429   83.3772   11.1691 C.ar    1  UNL1        0.0245
     29 C          63.4503   81.9918   10.5940 C.ar    1  UNL1        0.0135
     30 C          62.9332   80.8405   11.4045 C.ar    1  UNL1        0.0876
     31 C          62.4087   81.0744   12.7902 C.ar    1  UNL1        0.1092
     32 N          62.4013   82.4597   13.3654 N.ar    1  UNL1       -0.2385
     33 C          62.9406   79.4552   10.8293 C.1     1  UNL1        0.1020
     34 N          62.9480   78.0698   10.2540 N.1     1  UNL1       -0.1908
@<TRIPOS>BOND
     1     9     8    1
     2     9     1    1
     3     1     2   ar
     4     2     3   ar
     5     3    23    1
     6    23    24   am
     7    24    25    2
     8    24    27    1
     9    27    28   ar
    10    28    29   ar
    11    29    30   ar
    12    30    33    1
    13    33    34    3
    14    30    31   ar
    15    31    32   ar
    16     3     4   ar
    17     4     5   ar
    18     5     6   ar
    19     6     7    1
    20     9    10    1
    21    10    11    1
    22    11    12    1
    23    12    13    1
    24    12    19    1
    25    19    20    1
    26    19    21    1
    27    19    22    1
    28    12    14    1
    29    14    15    1
    30    14    16    2
    31    16     9    1
    32     6     1   ar
    33    32    27   ar
    34    23    26    1
    35    15    17    1
    36    15    18    1
@<TRIPOS>MOLECULE
*****
 34 36 0 0 0
SMALL
GASTEIGER

@<TRIPOS>ATOM
      1 C          64.0097   86.2216   15.2256 C.ar    1  UNL1        0.0528
      2 C          64.5381   87.4922   14.6288 C.ar    1  UNL1        0.0167
      3 C          64.2211   88.8106   15.2701 C.ar    1  UNL1        0.0505
      4 C          63.3758   88.8583   16.5082 C.ar    1  UNL1        0.0170
      5 C          62.8474   87.5877   17.1051 C.ar    1  UNL1        0.0307
      6 C          63.1643   86.2693   16.4638 C.ar    1  UNL1        0.1402
      7 F          62.6359   84.9986   17.0606 F       1  UNL1       -0.2044
      8 C          65.6902   85.5282   14.5822 C.3     1  UNL1        0.0607
      9 C          64.3266   84.9031   14.5843 C.3     1  UNL1        0.2223
     10 C          62.8531   84.7358   14.8091 C.3     1  UNL1        0.1959
     11 O          62.1700   83.4672   14.3919 O.3     1  UNL1       -0.3357
     12 C          62.9605   82.3659   13.7499 C.3     1  UNL1        0.2740
     13 C          63.2775   81.0475   13.1086 C.3     1  UNL1        0.0512
     14 C          64.4341   82.5331   13.5251 C.2     1  UNL1        0.3217
     15 N          65.2246   81.4318   12.8830 N.pl3   1  UNL1       -0.2480
     16 N          65.1172   83.8017   13.9423 N.2     1  UNL1       -0.0692
     17 H          64.7763   80.5992   12.6092 H       1  UNL1        0.2882
     18 H          66.1917   81.5416   12.7355 H       1  UNL1        0.2882
     19 C          61.5970   81.7407   13.7520 C.3     1  UNL1        0.4305
     20 F          60.2334   81.1155   13.7541 F       1  UNL1       -0.1670
     21 F          61.8001   81.2928   12.3349 F       1  UNL1       -0.1670
     22 F          61.3939   82.1886   15.1691 F       1  UNL1       -0.1670
     23 N          64.7496   90.0813   14.6732 N.am    1  UNL1       -0.2791
     24 C          64.3629   90.4718   13.2775 C.2     1  UNL1        0.2672
     25 O          63.4478   89.5917   12.4787 O.2     1  UNL1       -0.2682
     26 H          65.3502   90.6589   15.1975 H       1  UNL1        0.1552
     27 C          64.8912   91.7425   12.6807 C.ar    1  UNL1        0.1348
     28 C          64.6484   92.0486   11.2325 C.ar    1  UNL1        0.0245
     29 C          65.1768   93.3193   10.6356 C.ar    1  UNL1        0.0135
     30 C          65.9480   94.2838   11.4870 C.ar    1  UNL1        0.0876
     31 C          66.1909   93.9777   12.9352 C.ar    1  UNL1        0.1092
     32 N          65.6625   92.7071   13.5320 N.ar    1  UNL1       -0.2385
     33 C          66.4764   95.5544   10.8901 C.1     1  UNL1        0.1020
     34 N          67.0048   96.8251   10.2932 N.1     1  UNL1       -0.1908
@<TRIPOS>BOND
     1     9     8    1
     2     9     1    1
     3     1     2   ar
     4     2     3   ar
     5     3    23    1
     6    23    24   am
     7    24    25    2
     8    24    27    1
     9    27    28   ar
    10    28    29   ar
    11    29    30   ar
    12    30    33    1
    13    33    34    3
    14    30    31   ar
    15    31    32   ar
    16     3     4   ar
    17     4     5   ar
    18     5     6   ar
    19     6     7    1
    20     9    10    1
    21    10    11    1
    22    11    12    1
    23    12    13    1
    24    12    19    1
    25    19    20    1
    26    19    21    1
    27    19    22    1
    28    12    14    1
    29    14    15    1
    30    14    16    2
    31    16     9    1
    32     6     1   ar
    33    32    27   ar
    34    23    26    1
    35    15    17    1
    36    15    18    1
@<TRIPOS>MOLECULE
*****
 34 36 0 0 0
SMALL
GASTEIGER

@<TRIPOS>ATOM
      1 C          61.9962   87.1312   10.7858 C.ar    1  UNL1        0.0528
      2 C          62.9705   88.0920   11.4004 C.ar    1  UNL1        0.0167
      3 C          62.6228   89.5472   11.5070 C.ar    1  UNL1        0.0505
      4 C          61.3009   90.0417   10.9990 C.ar    1  UNL1        0.0170
      5 C          60.3267   89.0810   10.3844 C.ar    1  UNL1        0.0307
      6 C          60.6743   87.6257   10.2777 C.ar    1  UNL1        0.1402
      7 F          59.7001   86.6649    9.6631 F       1  UNL1       -0.2044
      8 C          62.4121   86.0667    9.2325 C.3     1  UNL1        0.0607
      9 C          62.3439   85.6759   10.6791 C.3     1  UNL1        0.2223
     10 C          62.1549   85.7905   12.1627 C.3     1  UNL1        0.1959
     11 O          62.3372   84.5856   13.0373 O.3     1  UNL1       -0.3357
     12 C          62.7086   83.2661   12.4282 C.3     1  UNL1        0.2740
     13 C          63.0562   81.8108   12.3215 C.3     1  UNL1        0.0512
     14 C          62.8975   83.1514   10.9446 C.2     1  UNL1        0.3217
     15 N          63.2689   81.8319   10.3356 N.pl3   1  UNL1       -0.2480
     16 N          62.7152   84.3564   10.0700 N.2     1  UNL1       -0.0692
     17 H          63.3885   81.0410   10.9096 H       1  UNL1        0.2882
     18 H          63.3929   81.7567    9.3618 H       1  UNL1        0.2882
     19 C          62.6403   82.8752   13.8748 C.3     1  UNL1        0.4305
     20 F          62.5721   82.4844   15.3215 F       1  UNL1       -0.1670
     21 F          61.5564   81.8882   13.5571 F       1  UNL1       -0.1670
     22 F          63.7242   83.8622   14.1925 F       1  UNL1       -0.1670
     23 N          63.5971   90.5080   12.1216 N.am    1  UNL1       -0.2791
     24 C          64.2506   90.1786   13.4310 C.2     1  UNL1        0.2672
     25 O          63.9299   88.8884   14.1257 O.2     1  UNL1       -0.2682
     26 H          63.8076   91.3548   11.6657 H       1  UNL1        0.1552
     27 C          65.2248   91.1393   14.0456 C.ar    1  UNL1        0.1348
     28 C          66.4167   91.6032   13.2619 C.ar    1  UNL1        0.0245
     29 C          67.3909   92.5640   13.8766 C.ar    1  UNL1        0.0135
     30 C          67.1733   93.0609   15.2750 C.ar    1  UNL1        0.0876
     31 C          65.9814   92.5971   16.0588 C.ar    1  UNL1        0.1092
     32 N          65.0072   91.6363   15.4441 N.ar    1  UNL1       -0.2385
     33 C          68.1475   94.0216   15.8897 C.1     1  UNL1        0.1020
     34 N          69.1218   94.9824   16.5044 N.1     1  UNL1       -0.1908
@<TRIPOS>BOND
     1     9     8    1
     2     9     1    1
     3     1     2   ar
     4     2     3   ar
     5     3    23    1
     6    23    24   am
     7    24    25    2
     8    24    27    1
     9    27    28   ar
    10    28    29   ar
    11    29    30   ar
    12    30    33    1
    13    33    34    3
    14    30    31   ar
    15    31    32   ar
    16     3     4   ar
    17     4     5   ar
    18     5     6   ar
    19     6     7    1
    20     9    10    1
    21    10    11    1
    22    11    12    1
    23    12    13    1
    24    12    19    1
    25    19    20    1
    26    19    21    1
    27    19    22    1
    28    12    14    1
    29    14    15    1
    30    14    16    2
    31    16     9    1
    32     6     1   ar
    33    32    27   ar
    34    23    26    1
    35    15    17    1
    36    15    18    1
@<TRIPOS>MOLECULE
*****
 34 36 0 0 0
SMALL
GASTEIGER

@<TRIPOS>ATOM
      1 C          63.0787   89.9671   11.6411 C.ar    1  UNL1        0.0528
      2 C          63.0009   88.4935   11.9105 C.ar    1  UNL1        0.0167
      3 C          62.1910   87.6083   11.0102 C.ar    1  UNL1        0.0505
      4 C          61.4590   88.1966    9.8406 C.ar    1  UNL1        0.0170
      5 C          61.5367   89.6702    9.5713 C.ar    1  UNL1        0.0307
      6 C          62.3466   90.5554   10.4716 C.ar    1  UNL1        0.1402
      7 F          62.4244   92.0290   10.2022 F       1  UNL1       -0.2044
      8 C          63.1602   90.0347   13.5666 C.3     1  UNL1        0.0607
      9 C          63.8885   90.8524   12.5414 C.3     1  UNL1        0.2223
     10 C          64.3356   91.3625   11.2036 C.3     1  UNL1        0.1959
     11 O          65.3395   92.4740   11.1220 O.3     1  UNL1       -0.3357
     12 C          65.8964   93.0753   12.3784 C.3     1  UNL1        0.2740
     13 C          66.7063   93.9605   13.2786 C.3     1  UNL1        0.0512
     14 C          65.4494   92.5651   13.7162 C.2     1  UNL1        0.3217
     15 N          66.0063   93.1664   14.9725 N.pl3   1  UNL1       -0.2480
     16 N          64.4455   91.4537   13.7978 N.2     1  UNL1       -0.0692
     17 H          66.6653   93.8959   14.9190 H       1  UNL1        0.2882
     18 H          65.7129   92.8316   15.8506 H       1  UNL1        0.2882
     19 C          66.6248   93.8930   11.3532 C.3     1  UNL1        0.4305
     20 F          67.3531   94.7107   10.3280 F       1  UNL1       -0.1670
     21 F          65.9522   95.1326   11.8640 F       1  UNL1       -0.1670
     22 F          67.2973   92.6534   10.8424 F       1  UNL1       -0.1670
     23 N          62.1132   86.1347   11.2795 N.am    1  UNL1       -0.2791
     24 C          62.8182   85.5513   12.4681 C.2     1  UNL1        0.2672
     25 O          63.6010   86.4414   13.3873 O.2     1  UNL1       -0.2682
     26 H          61.5994   85.5505   10.6762 H       1  UNL1        0.1552
     27 C          62.7404   84.0777   12.7374 C.ar    1  UNL1        0.1348
     28 C          62.9596   83.0988   11.6222 C.ar    1  UNL1        0.0245
     29 C          62.8818   81.6252   11.8916 C.ar    1  UNL1        0.0135
     30 C          62.5849   81.1306   13.2761 C.ar    1  UNL1        0.0876
     31 C          62.3657   82.1095   14.3914 C.ar    1  UNL1        0.1092
     32 N          62.4435   83.5830   14.1221 N.ar    1  UNL1       -0.2385
     33 C          62.5071   79.6570   13.5455 C.1     1  UNL1        0.1020
     34 N          62.4293   78.1834   13.8148 N.1     1  UNL1       -0.1908
@<TRIPOS>BOND
     1     9     8    1
     2     9     1    1
     3     1     2   ar
     4     2     3   ar
     5     3    23    1
     6    23    24   am
     7    24    25    2
     8    24    27    1
     9    27    28   ar
    10    28    29   ar
    11    29    30   ar
    12    30    33    1
    13    33    34    3
    14    30    31   ar
    15    31    32   ar
    16     3     4   ar
    17     4     5   ar
    18     5     6   ar
    19     6     7    1
    20     9    10    1
    21    10    11    1
    22    11    12    1
    23    12    13    1
    24    12    19    1
    25    19    20    1
    26    19    21    1
    27    19    22    1
    28    12    14    1
    29    14    15    1
    30    14    16    2
    31    16     9    1
    32     6     1   ar
    33    32    27   ar
    34    23    26    1
    35    15    17    1
    36    15    18    1
@<TRIPOS>MOLECULE
*****
 34 36 0 0 0
SMALL
GASTEIGER

@<TRIPOS>ATOM
      1 C          64.0709   89.0113   15.0254 C.ar    1  UNL1        0.0528
      2 C          64.0791   87.6379   14.4222 C.ar    1  UNL1        0.0167
      3 C          63.5506   86.4722   15.2043 C.ar    1  UNL1        0.0505
      4 C          63.0139   86.6798   16.5895 C.ar    1  UNL1        0.0170
      5 C          63.0057   88.0532   17.1927 C.ar    1  UNL1        0.0307
      6 C          63.5342   89.2189   16.4106 C.ar    1  UNL1        0.1402
      7 F          63.5260   90.5923   17.0137 F       1  UNL1       -0.2044
      8 C          65.4455   90.2861   15.4771 C.3     1  UNL1        0.0607
      9 C          64.5994   90.1771   14.2433 C.3     1  UNL1        0.2223
     10 C          63.5698   89.6633   13.2811 C.3     1  UNL1        0.1959
     11 O          63.3624   90.3531   11.9654 O.3     1  UNL1       -0.3357
     12 C          64.1848   91.5568   11.6118 C.3     1  UNL1        0.2740
     13 C          64.7133   92.7225   10.8298 C.3     1  UNL1        0.0512
     14 C          65.2145   92.0706   12.5740 C.2     1  UNL1        0.3217
     15 N          66.0369   93.2742   12.2204 N.pl3   1  UNL1       -0.2480
     16 N          65.4218   91.3808   13.8897 N.2     1  UNL1       -0.0692
     17 H          65.9008   93.7270   11.3568 H       1  UNL1        0.2882
     18 H          66.7127   93.6114   12.8519 H       1  UNL1        0.2882
     19 C          63.3387   91.4478   10.3780 C.3     1  UNL1        0.4305
     20 F          62.4926   91.3389    9.1442 F       1  UNL1       -0.1670
     21 F          62.1232   91.2338   11.2305 F       1  UNL1       -0.1670
     22 F          64.5542   91.6619    9.5256 F       1  UNL1       -0.1670
     23 N          63.5588   85.0988   14.6012 N.am    1  UNL1       -0.2791
     24 C          62.9218   84.8632   13.2638 C.2     1  UNL1        0.2672
     25 O          62.2766   86.0010   12.5295 O.2     1  UNL1       -0.2682
     26 H          63.9823   84.3520   15.0832 H       1  UNL1        0.1552
     27 C          62.9300   83.4898   12.6606 C.ar    1  UNL1        0.1348
     28 C          62.3577   82.3321   13.4237 C.ar    1  UNL1        0.0245
     29 C          62.3659   80.9587   12.8205 C.ar    1  UNL1        0.0135
     30 C          62.9463   80.7431   11.4543 C.ar    1  UNL1        0.0876
     31 C          63.5186   81.9008   10.6912 C.ar    1  UNL1        0.1092
     32 N          63.5104   83.2741   11.2944 N.ar    1  UNL1       -0.2385
     33 C          62.9545   79.3697   10.8512 C.1     1  UNL1        0.1020
     34 N          62.9626   77.9963   10.2480 N.1     1  UNL1       -0.1908
@<TRIPOS>BOND
     1     9     8    1
     2     9     1    1
     3     1     2   ar
     4     2     3   ar
     5     3    23    1
     6    23    24   am
     7    24    25    2
     8    24    27    1
     9    27    28   ar
    10    28    29   ar
    11    29    30   ar
    12    30    33    1
    13    33    34    3
    14    30    31   ar
    15    31    32   ar
    16     3     4   ar
    17     4     5   ar
    18     5     6   ar
    19     6     7    1
    20     9    10    1
    21    10    11    1
    22    11    12    1
    23    12    13    1
    24    12    19    1
    25    19    20    1
    26    19    21    1
    27    19    22    1
    28    12    14    1
    29    14    15    1
    30    14    16    2
    31    16     9    1
    32     6     1   ar
    33    32    27   ar
    34    23    26    1
    35    15    17    1
    36    15    18    1
@<TRIPOS>MOLECULE
*****
 34 36 0 0 0
SMALL
GASTEIGER

@<TRIPOS>ATOM
      1 C          63.5185   90.0898   12.7352 C.ar    1  UNL1        0.0528
      2 C          63.3053   88.6070   12.8115 C.ar    1  UNL1        0.0167
      3 C          62.8223   87.8558   11.6064 C.ar    1  UNL1        0.0505
      4 C          62.5525   88.5874   10.3249 C.ar    1  UNL1        0.0170
      5 C          62.7658   90.0702   10.2487 C.ar    1  UNL1        0.0307
      6 C          63.2488   90.8213   11.4538 C.ar    1  UNL1        0.1402
      7 F          63.4621   92.3042   11.3775 F       1  UNL1       -0.2044
      8 C          62.5773   90.5938   14.3411 C.3     1  UNL1        0.0607
      9 C          64.0016   90.8410   13.9404 C.3     1  UNL1        0.2223
     10 C          65.2580   90.8273   13.1212 C.3     1  UNL1        0.1959
     11 O          66.5028   91.4790   13.6462 O.3     1  UNL1       -0.3357
     12 C          66.4912   92.1444   14.9906 C.3     1  UNL1        0.2740
     13 C          66.9741   92.8957   16.1957 C.3     1  UNL1        0.0512
     14 C          65.2347   92.1581   15.8098 C.2     1  UNL1        0.3217
     15 N          65.2231   92.8235   17.1541 N.pl3   1  UNL1       -0.2480
     16 N          63.9899   91.5064   15.2847 N.2     1  UNL1       -0.0692
     17 H          66.0401   93.2513   17.4987 H       1  UNL1        0.2882
     18 H          64.3984   92.8325   17.6918 H       1  UNL1        0.2882
     19 C          67.9154   92.3917   14.5899 C.3     1  UNL1        0.4305
     20 F          69.3396   92.6389   14.1892 F       1  UNL1       -0.1670
     21 F          68.3861   91.6155   15.7841 F       1  UNL1       -0.1670
     22 F          67.4446   93.1677   13.3957 F       1  UNL1       -0.1670
     23 N          62.6090   86.3730   11.6826 N.am    1  UNL1       -0.2791
     24 C          63.1589   85.5948   12.8411 C.2     1  UNL1        0.2672
     25 O          63.9220   86.2994   13.9233 O.2     1  UNL1       -0.2682
     26 H          62.1081   85.9105   10.9723 H       1  UNL1        0.1552
     27 C          62.9456   84.1120   12.9174 C.ar    1  UNL1        0.1348
     28 C          63.2054   83.2540   11.7147 C.ar    1  UNL1        0.0245
     29 C          62.9921   81.7712   11.7910 C.ar    1  UNL1        0.0135
     30 C          62.5191   81.1464   13.0700 C.ar    1  UNL1        0.0876
     31 C          62.2593   82.0043   14.2727 C.ar    1  UNL1        0.1092
     32 N          62.4726   83.4871   14.1964 N.ar    1  UNL1       -0.2385
     33 C          62.3058   79.6636   13.1463 C.1     1  UNL1        0.1020
     34 N          62.0925   78.1808   13.2225 N.1     1  UNL1       -0.1908
@<TRIPOS>BOND
     1     9     8    1
     2     9     1    1
     3     1     2   ar
     4     2     3   ar
     5     3    23    1
     6    23    24   am
     7    24    25    2
     8    24    27    1
     9    27    28   ar
    10    28    29   ar
    11    29    30   ar
    12    30    33    1
    13    33    34    3
    14    30    31   ar
    15    31    32   ar
    16     3     4   ar
    17     4     5   ar
    18     5     6   ar
    19     6     7    1
    20     9    10    1
    21    10    11    1
    22    11    12    1
    23    12    13    1
    24    12    19    1
    25    19    20    1
    26    19    21    1
    27    19    22    1
    28    12    14    1
    29    14    15    1
    30    14    16    2
    31    16     9    1
    32     6     1   ar
    33    32    27   ar
    34    23    26    1
    35    15    17    1
    36    15    18    1
