@<TRIPOS>MOLECULE
*****
 25 27 0 0 0
SMALL
GASTEIGER

@<TRIPOS>ATOM
      1 C          63.8438   89.4795   15.0915 C.2     1  UNL1        0.2309
      2 O          62.4700   89.3184   15.6717 O.2     1  UNL1       -0.2744
      3 N          64.6584   88.2685   14.7449 N.am    1  UNL1       -0.2787
      4 H          65.5601   88.3743   14.3641 H       1  UNL1        0.1553
      5 C          64.0991   86.8965   14.9784 C.ar    1  UNL1        0.0807
      6 C          63.9734   85.8092   13.9527 C.ar    1  UNL1        0.0219
      7 C          63.3639   84.6115   14.6190 C.ar    1  UNL1        0.0084
      8 C          63.1128   84.9586   16.0566 C.ar    1  UNL1        0.0367
      9 S          63.5671   86.3707   16.2787 S.2     1  UNL1       -0.0717
     10 C          63.0590   83.2975   13.9630 C.ar    1  UNL1        0.0059
     11 C          63.9100   82.8106   12.8277 C.ar    1  UNL1        0.0208
     12 C          63.6052   81.4967   12.1717 C.ar    1  UNL1        0.1013
     13 N          62.4492   80.6694   12.6509 N.ar    1  UNL1       -0.2165
     14 C          61.5982   81.1563   13.7862 C.ar    1  UNL1        0.2223
     15 F          60.4424   80.3291   14.2654 F       1  UNL1       -0.1832
     16 C          61.9031   82.4703   14.4422 C.ar    1  UNL1        0.0497
     17 C          64.4031   90.8516   14.8580 C.3     1  UNL1        0.1118
     18 C          65.8308   92.8770   11.7580 C.ar    1  UNL1        0.1384
     19 C          64.9407   92.3775   10.6589 C.ar    1  UNL1        0.0369
     20 C          63.8714   91.3694   10.9594 C.ar    1  UNL1        0.0028
     21 C          63.6922   90.8608   12.3590 C.ar    1  UNL1       -0.0036
     22 C          64.5823   91.3602   13.4582 C.ar    1  UNL1       -0.0101
     23 C          65.6516   92.3684   13.1577 C.ar    1  UNL1        0.0331
     24 C          66.5305   95.2251   10.8938 C.3     1  UNL1        0.2525
     25 O          66.9001   93.8851   11.4576 O.3     1  UNL1       -0.4714
@<TRIPOS>BOND
     1    24    25    1
     2    25    18    1
     3    18    19   ar
     4    19    20   ar
     5    20    21   ar
     6    21    22   ar
     7    22    17    1
     8    17     1    1
     9     1     2    2
    10     1     3   am
    11     3     5    1
    12     5     6   ar
    13     6     7   ar
    14     7    10    1
    15    10    11   ar
    16    11    12   ar
    17    12    13   ar
    18    13    14   ar
    19    14    15    1
    20    14    16   ar
    21     7     8   ar
    22     8     9   ar
    23    22    23   ar
    24    23    18   ar
    25     9     5   ar
    26    16    10   ar
    27     3     4    1
@<TRIPOS>MOLECULE
*****
 25 27 0 0 0
SMALL
GASTEIGER

@<TRIPOS>ATOM
      1 C          63.6077   89.1302   15.6075 C.2     1  UNL1        0.2309
      2 O          62.4385   88.6086   16.3890 O.2     1  UNL1       -0.2744
      3 N          64.4583   88.1861   14.8104 N.am    1  UNL1       -0.2787
      4 H          65.2257   88.5284   14.2975 H       1  UNL1        0.1553
      5 C          64.1396   86.7204   14.7949 C.ar    1  UNL1        0.0807
      6 C          63.9979   85.8619   13.5731 C.ar    1  UNL1        0.0219
      7 C          63.6774   84.4669   14.0215 C.ar    1  UNL1        0.0084
      8 C          63.6210   84.4632   15.5205 C.ar    1  UNL1        0.0367
      9 S          63.9067   85.8560   15.9984 S.2     1  UNL1       -0.0717
     10 C          63.4526   83.2832   13.1279 C.ar    1  UNL1        0.0059
     11 C          63.8596   83.3445   11.6854 C.ar    1  UNL1        0.0208
     12 C          63.6350   82.1610   10.7918 C.ar    1  UNL1        0.1013
     13 N          63.0032   80.9160   11.3406 N.ar    1  UNL1       -0.2165
     14 C          62.5962   80.8547   12.7830 C.ar    1  UNL1        0.2223
     15 F          61.9645   79.6099   13.3317 F       1  UNL1       -0.1832
     16 C          62.8209   82.0384   13.6766 C.ar    1  UNL1        0.0497
     17 C          63.9264   90.5958   15.6230 C.3     1  UNL1        0.1118
     18 C          67.0105   92.1986   13.7075 C.ar    1  UNL1        0.1384
     19 C          66.4261   92.3898   12.3393 C.ar    1  UNL1        0.0369
     20 C          65.0085   91.9831   12.0657 C.ar    1  UNL1        0.0028
     21 C          64.1753   91.3851   13.1603 C.ar    1  UNL1       -0.0036
     22 C          64.7597   91.1939   14.5284 C.ar    1  UNL1       -0.0101
     23 C          66.1773   91.6006   14.8020 C.ar    1  UNL1        0.0331
     24 C          68.8476   92.9727   15.3736 C.3     1  UNL1        0.2525
     25 O          68.4281   92.6054   13.9811 O.3     1  UNL1       -0.4714
@<TRIPOS>BOND
     1    24    25    1
     2    25    18    1
     3    18    19   ar
     4    19    20   ar
     5    20    21   ar
     6    21    22   ar
     7    22    17    1
     8    17     1    1
     9     1     2    2
    10     1     3   am
    11     3     5    1
    12     5     6   ar
    13     6     7   ar
    14     7    10    1
    15    10    11   ar
    16    11    12   ar
    17    12    13   ar
    18    13    14   ar
    19    14    15    1
    20    14    16   ar
    21     7     8   ar
    22     8     9   ar
    23    22    23   ar
    24    23    18   ar
    25     9     5   ar
    26    16    10   ar
    27     3     4    1
@<TRIPOS>MOLECULE
*****
 25 27 0 0 0
SMALL
GASTEIGER

@<TRIPOS>ATOM
      1 C          64.1743   85.5173   15.4993 C.2     1  UNL1        0.2309
      2 O          65.5049   85.9080   14.9273 O.2     1  UNL1       -0.2744
      3 N          63.1934   86.5762   15.9076 N.am    1  UNL1       -0.2787
      4 H          62.3202   86.3199   16.2830 H       1  UNL1        0.1553
      5 C          63.5431   88.0257   15.7439 C.ar    1  UNL1        0.0807
      6 C          64.4192   88.6059   14.6736 C.ar    1  UNL1        0.0219
      7 C          64.4956   90.0882   14.8900 C.ar    1  UNL1        0.0084
      8 C          63.6667   90.4241   16.0942 C.ar    1  UNL1        0.0367
      9 S          63.0780   89.1494   16.6220 S.2     1  UNL1       -0.0717
     10 C          65.2657   91.0634   14.0498 C.ar    1  UNL1        0.0059
     11 C          66.6214   91.5280   14.4927 C.ar    1  UNL1        0.0208
     12 C          67.3916   92.5031   13.6526 C.ar    1  UNL1        0.1013
     13 N          66.8060   93.0138   12.3694 N.ar    1  UNL1       -0.2165
     14 C          65.4503   92.5492   11.9265 C.ar    1  UNL1        0.2223
     15 F          64.8647   93.0597   10.6434 F       1  UNL1       -0.1832
     16 C          64.6801   91.5740   12.7667 C.ar    1  UNL1        0.0497
     17 C          63.8247   84.0679   15.6629 C.3     1  UNL1        0.1118
     18 C          63.8424   82.5904   11.9796 C.ar    1  UNL1        0.1384
     19 C          62.7192   81.6001   12.0660 C.ar    1  UNL1        0.0369
     20 C          61.9644   81.4323   13.3514 C.ar    1  UNL1        0.0028
     21 C          62.3329   82.2549   14.5503 C.ar    1  UNL1       -0.0036
     22 C          63.4562   83.2452   14.4639 C.ar    1  UNL1       -0.0101
     23 C          64.2109   83.4130   13.1785 C.ar    1  UNL1        0.0331
     24 C          64.0112   83.5760    9.5816 C.3     1  UNL1        0.2525
     25 O          64.5972   82.7582   10.6942 O.3     1  UNL1       -0.4714
@<TRIPOS>BOND
     1    24    25    1
     2    25    18    1
     3    18    19   ar
     4    19    20   ar
     5    20    21   ar
     6    21    22   ar
     7    22    17    1
     8    17     1    1
     9     1     2    2
    10     1     3   am
    11     3     5    1
    12     5     6   ar
    13     6     7   ar
    14     7    10    1
    15    10    11   ar
    16    11    12   ar
    17    12    13   ar
    18    13    14   ar
    19    14    15    1
    20    14    16   ar
    21     7     8   ar
    22     8     9   ar
    23    22    23   ar
    24    23    18   ar
    25     9     5   ar
    26    16    10   ar
    27     3     4    1
@<TRIPOS>MOLECULE
*****
 25 27 0 0 0
SMALL
GASTEIGER

@<TRIPOS>ATOM
      1 C          63.7989   89.4322   15.1989 C.2     1  UNL1        0.2309
      2 O          62.4688   89.2194   15.8590 O.2     1  UNL1       -0.2744
      3 N          64.5984   88.2544   14.7259 N.am    1  UNL1       -0.2787
      4 H          65.4713   88.3941   14.2926 H       1  UNL1        0.1553
      5 C          64.0678   86.8639   14.9128 C.ar    1  UNL1        0.0807
      6 C          63.9239   85.8237   13.8418 C.ar    1  UNL1        0.0219
      7 C          63.3552   84.5864   14.4707 C.ar    1  UNL1        0.0084
      8 C          63.1475   84.8619   15.9305 C.ar    1  UNL1        0.0367
      9 S          63.5880   86.2695   16.2037 S.2     1  UNL1       -0.0717
     10 C          63.0479   83.2995   13.7639 C.ar    1  UNL1        0.0059
     11 C          62.2835   82.2197   14.4706 C.ar    1  UNL1        0.0208
     12 C          61.9762   80.9328   13.7639 C.ar    1  UNL1        0.1013
     13 N          62.4335   80.7257   12.3503 N.ar    1  UNL1       -0.2165
     14 C          63.1980   81.8056   11.6436 C.ar    1  UNL1        0.2223
     15 F          63.6553   81.5986   10.2301 F       1  UNL1       -0.1832
     16 C          63.5052   83.0925   12.3504 C.ar    1  UNL1        0.0497
     17 C          64.3294   90.8227   15.0120 C.3     1  UNL1        0.1118
     18 C          63.9828   91.5492   11.1258 C.ar    1  UNL1        0.1384
     19 C          65.2250   92.3519   10.8756 C.ar    1  UNL1        0.0369
     20 C          66.1686   92.6449   12.0042 C.ar    1  UNL1        0.0028
     21 C          65.8701   92.1352   13.3829 C.ar    1  UNL1       -0.0036
     22 C          64.6280   91.3324   13.6331 C.ar    1  UNL1       -0.0101
     23 C          63.6843   91.0394   12.5046 C.ar    1  UNL1        0.0331
     24 C          62.0457   90.1392   10.1211 C.3     1  UNL1        0.2525
     25 O          63.0391   91.2562    9.9972 O.3     1  UNL1       -0.4714
@<TRIPOS>BOND
     1    24    25    1
     2    25    18    1
     3    18    19   ar
     4    19    20   ar
     5    20    21   ar
     6    21    22   ar
     7    22    17    1
     8    17     1    1
     9     1     2    2
    10     1     3   am
    11     3     5    1
    12     5     6   ar
    13     6     7   ar
    14     7    10    1
    15    10    11   ar
    16    11    12   ar
    17    12    13   ar
    18    13    14   ar
    19    14    15    1
    20    14    16   ar
    21     7     8   ar
    22     8     9   ar
    23    22    23   ar
    24    23    18   ar
    25     9     5   ar
    26    16    10   ar
    27     3     4    1
@<TRIPOS>MOLECULE
*****
 25 27 0 0 0
SMALL
GASTEIGER

@<TRIPOS>ATOM
      1 C          61.8229   88.5223   11.4921 C.2     1  UNL1        0.2309
      2 O          63.0369   87.8575   12.0702 O.2     1  UNL1       -0.2744
      3 N          61.8327   89.9979   11.2225 N.am    1  UNL1       -0.2787
      4 H          61.0359   90.4343   10.8431 H       1  UNL1        0.1553
      5 C          63.0565   90.8086   11.5309 C.ar    1  UNL1        0.0807
      6 C          63.9272   91.5067   10.5288 C.ar    1  UNL1        0.0219
      7 C          65.0333   92.1931   11.2741 C.ar    1  UNL1        0.0084
      8 C          64.8461   91.9191   12.7370 C.ar    1  UNL1        0.0367
      9 S          63.6243   91.0634   12.8957 S.2     1  UNL1       -0.0717
     10 C          66.1334   93.0100   10.6638 C.ar    1  UNL1        0.0059
     11 C          66.0015   94.5018   10.5796 C.ar    1  UNL1        0.0208
     12 C          67.1015   95.3187    9.9694 C.ar    1  UNL1        0.1013
     13 N          68.3336   94.6438    9.4432 N.ar    1  UNL1       -0.2165
     14 C          68.4654   93.1520    9.5274 C.ar    1  UNL1        0.2223
     15 F          69.6973   92.4771    9.0013 F       1  UNL1       -0.1832
     16 C          67.3653   92.3351   10.1377 C.ar    1  UNL1        0.0497
     17 C          60.5991   87.7117   11.1837 C.3     1  UNL1        0.1118
     18 C          61.3718   85.6414    7.8871 C.ar    1  UNL1        0.1384
     19 C          60.1006   85.8480    7.1182 C.ar    1  UNL1        0.0369
     20 C          58.9956   86.6758    7.7044 C.ar    1  UNL1        0.0028
     21 C          59.1617   87.2971    9.0595 C.ar    1  UNL1       -0.0036
     22 C          60.4329   87.0904    9.8284 C.ar    1  UNL1       -0.0101
     23 C          61.5380   86.2626    9.2423 C.ar    1  UNL1        0.0331
     24 C          62.4253   84.4077    5.8578 C.3     1  UNL1        0.2525
     25 O          62.4768   84.8136    7.3009 O.3     1  UNL1       -0.4714
@<TRIPOS>BOND
     1    24    25    1
     2    25    18    1
     3    18    19   ar
     4    19    20   ar
     5    20    21   ar
     6    21    22   ar
     7    22    17    1
     8    17     1    1
     9     1     2    2
    10     1     3   am
    11     3     5    1
    12     5     6   ar
    13     6     7   ar
    14     7    10    1
    15    10    11   ar
    16    11    12   ar
    17    12    13   ar
    18    13    14   ar
    19    14    15    1
    20    14    16   ar
    21     7     8   ar
    22     8     9   ar
    23    22    23   ar
    24    23    18   ar
    25     9     5   ar
    26    16    10   ar
    27     3     4    1
@<TRIPOS>MOLECULE
*****
 25 27 0 0 0
SMALL
GASTEIGER

@<TRIPOS>ATOM
      1 C          63.1414   89.1838   12.3178 C.2     1  UNL1        0.2309
      2 O          63.8370   88.3518   13.3541 O.2     1  UNL1       -0.2744
      3 N          62.4378   88.5198   11.1714 N.am    1  UNL1       -0.2787
      4 H          61.9813   89.0658   10.4912 H       1  UNL1        0.1553
      5 C          62.4300   87.0239   11.0613 C.ar    1  UNL1        0.0807
      6 C          62.6841   86.0562   12.1789 C.ar    1  UNL1        0.0219
      7 C          62.5777   84.6673   11.6227 C.ar    1  UNL1        0.0084
      8 C          62.2579   84.7764   10.1612 C.ar    1  UNL1        0.0367
      9 S          62.1666   86.2329    9.8143 S.2     1  UNL1       -0.0717
     10 C          62.7594   83.3928   12.3927 C.ar    1  UNL1        0.0059
     11 C          63.0778   83.4406   13.8577 C.ar    1  UNL1        0.0208
     12 C          63.2594   82.1663   14.6277 C.ar    1  UNL1        0.1013
     13 N          63.1226   80.8440   13.9326 N.ar    1  UNL1       -0.2165
     14 C          62.8042   80.7962   12.4676 C.ar    1  UNL1        0.2223
     15 F          62.6674   79.4740   11.7726 F       1  UNL1       -0.1832
     16 C          62.6226   82.0707   11.6976 C.ar    1  UNL1        0.0497
     17 C          63.1493   90.6797   12.4279 C.3     1  UNL1        0.1118
     18 C          66.3366   93.0387   12.2659 C.ar    1  UNL1        0.1384
     19 C          66.9155   92.8273   13.6335 C.ar    1  UNL1        0.0369
     20 C          66.2390   91.9000   14.5991 C.ar    1  UNL1        0.0028
     21 C          64.9836   91.1841   14.1973 C.ar    1  UNL1       -0.0036
     22 C          64.4047   91.3956   12.8298 C.ar    1  UNL1       -0.0101
     23 C          65.0812   92.3229   11.8641 C.ar    1  UNL1        0.0331
     24 C          66.4541   95.3371   11.0604 C.3     1  UNL1        0.2525
     25 O          67.0130   93.9660   11.3003 O.3     1  UNL1       -0.4714
@<TRIPOS>BOND
     1    24    25    1
     2    25    18    1
     3    18    19   ar
     4    19    20   ar
     5    20    21   ar
     6    21    22   ar
     7    22    17    1
     8    17     1    1
     9     1     2    2
    10     1     3   am
    11     3     5    1
    12     5     6   ar
    13     6     7   ar
    14     7    10    1
    15    10    11   ar
    16    11    12   ar
    17    12    13   ar
    18    13    14   ar
    19    14    15    1
    20    14    16   ar
    21     7     8   ar
    22     8     9   ar
    23    22    23   ar
    24    23    18   ar
    25     9     5   ar
    26    16    10   ar
    27     3     4    1
@<TRIPOS>MOLECULE
*****
 25 27 0 0 0
SMALL
GASTEIGER

@<TRIPOS>ATOM
      1 C          62.2117   86.6458   10.5695 C.2     1  UNL1        0.2309
      2 O          62.7572   87.0960    9.2467 O.2     1  UNL1       -0.2744
      3 N          62.1624   87.6013   11.7248 N.am    1  UNL1       -0.2787
      4 H          61.8044   87.3059   12.5930 H       1  UNL1        0.1553
      5 C          62.6585   89.0069   11.5573 C.ar    1  UNL1        0.0807
      6 C          63.7316   89.6661   12.3721 C.ar    1  UNL1        0.0219
      7 C          63.9050   91.0667   11.8639 C.ar    1  UNL1        0.0084
      8 C          62.9391   91.2732   10.7350 C.ar    1  UNL1        0.0367
      9 S          62.1687   90.0001   10.5455 S.2     1  UNL1       -0.0717
     10 C          64.8742   92.0825   12.3919 C.ar    1  UNL1        0.0059
     11 C          65.3726   91.9811   13.8030 C.ar    1  UNL1        0.0208
     12 C          66.3417   92.9968   14.3311 C.ar    1  UNL1        0.1013
     13 N          66.8126   94.1142   13.4479 N.ar    1  UNL1       -0.2165
     14 C          66.3143   94.2157   12.0368 C.ar    1  UNL1        0.2223
     15 F          66.7851   95.3330   11.1536 F       1  UNL1       -0.1832
     16 C          65.3451   93.1998   11.5088 C.ar    1  UNL1        0.0497
     17 C          61.7156   85.2402   10.7371 C.3     1  UNL1        0.1118
     18 C          63.5128   83.0043   13.4794 C.ar    1  UNL1        0.1384
     19 C          64.3676   82.1267   12.6139 C.ar    1  UNL1        0.0369
     20 C          64.3384   82.2870   11.1228 C.ar    1  UNL1        0.0028
     21 C          63.4544   83.3248   10.4972 C.ar    1  UNL1       -0.0036
     22 C          62.5996   84.2024   11.3627 C.ar    1  UNL1       -0.0101
     23 C          62.6288   84.0421   12.8538 C.ar    1  UNL1        0.0331
     24 C          62.7900   83.8049   15.8430 C.3     1  UNL1        0.2525
     25 O          63.5420   82.8440   14.9706 O.3     1  UNL1       -0.4714
@<TRIPOS>BOND
     1    24    25    1
     2    25    18    1
     3    18    19   ar
     4    19    20   ar
     5    20    21   ar
     6    21    22   ar
     7    22    17    1
     8    17     1    1
     9     1     2    2
    10     1     3   am
    11     3     5    1
    12     5     6   ar
    13     6     7   ar
    14     7    10    1
    15    10    11   ar
    16    11    12   ar
    17    12    13   ar
    18    13    14   ar
    19    14    15    1
    20    14    16   ar
    21     7     8   ar
    22     8     9   ar
    23    22    23   ar
    24    23    18   ar
    25     9     5   ar
    26    16    10   ar
    27     3     4    1
@<TRIPOS>MOLECULE
*****
 25 27 0 0 0
SMALL
GASTEIGER

@<TRIPOS>ATOM
      1 C          64.3420   85.8366   15.4290 C.2     1  UNL1        0.2309
      2 O          65.6982   86.2909   14.9770 O.2     1  UNL1       -0.2744
      3 N          63.2901   86.8476   15.7779 N.am    1  UNL1       -0.2787
      4 H          62.4000   86.5495   16.0745 H       1  UNL1        0.1553
      5 C          63.5946   88.3127   15.6748 C.ar    1  UNL1        0.0807
      6 C          64.3862   88.9742   14.5859 C.ar    1  UNL1        0.0219
      7 C          64.4417   90.4440   14.8806 C.ar    1  UNL1        0.0084
      8 C          63.6843   90.6908   16.1516 C.ar    1  UNL1        0.0367
      9 S          63.1607   89.3736   16.6424 S.2     1  UNL1       -0.0717
     10 C          65.1332   91.4842   14.0501 C.ar    1  UNL1        0.0059
     11 C          66.1647   92.3774   14.6731 C.ar    1  UNL1        0.0208
     12 C          66.8562   93.4176   13.8427 C.ar    1  UNL1        0.1013
     13 N          66.5161   93.5648   12.3891 N.ar    1  UNL1       -0.2165
     14 C          65.4846   92.6716   11.7661 C.ar    1  UNL1        0.2223
     15 F          65.1445   92.8187   10.3126 F       1  UNL1       -0.1832
     16 C          64.7931   91.6313   12.5966 C.ar    1  UNL1        0.0497
     17 C          64.0376   84.3715   15.5321 C.3     1  UNL1        0.1118
     18 C          62.3257   81.6186   13.2428 C.ar    1  UNL1        0.1384
     19 C          62.7519   82.0780   11.8801 C.ar    1  UNL1        0.0369
     20 C          63.6068   83.3020   11.7347 C.ar    1  UNL1        0.0028
     21 C          64.0353   84.0665   12.9519 C.ar    1  UNL1       -0.0036
     22 C          63.6090   83.6070   14.3147 C.ar    1  UNL1       -0.0101
     23 C          62.7542   82.3830   14.4601 C.ar    1  UNL1        0.0331
     24 C          60.2025   80.4561   14.1867 C.3     1  UNL1        0.2525
     25 O          61.4708   80.3946   13.3883 O.3     1  UNL1       -0.4714
@<TRIPOS>BOND
     1    24    25    1
     2    25    18    1
     3    18    19   ar
     4    19    20   ar
     5    20    21   ar
     6    21    22   ar
     7    22    17    1
     8    17     1    1
     9     1     2    2
    10     1     3   am
    11     3     5    1
    12     5     6   ar
    13     6     7   ar
    14     7    10    1
    15    10    11   ar
    16    11    12   ar
    17    12    13   ar
    18    13    14   ar
    19    14    15    1
    20    14    16   ar
    21     7     8   ar
    22     8     9   ar
    23    22    23   ar
    24    23    18   ar
    25     9     5   ar
    26    16    10   ar
    27     3     4    1
@<TRIPOS>MOLECULE
*****
 25 27 0 0 0
SMALL
GASTEIGER

@<TRIPOS>ATOM
      1 C          63.7695   88.8713   13.9771 C.2     1  UNL1        0.2309
      2 O          64.0449   87.6406   14.7892 O.2     1  UNL1       -0.2744
      3 N          63.1538   88.7487   12.6148 N.am    1  UNL1       -0.2787
      4 H          62.9731   89.5564   12.0817 H       1  UNL1        0.1553
      5 C          62.8134   87.3954   12.0646 C.ar    1  UNL1        0.0807
      6 C          63.1443   86.0770   12.6990 C.ar    1  UNL1        0.0219
      7 C          62.6178   84.9897   11.8100 C.ar    1  UNL1        0.0084
      8 C          61.9614   85.6360   10.6261 C.ar    1  UNL1        0.0367
      9 S          62.0823   87.1228   10.7835 S.2     1  UNL1       -0.0717
     10 C          62.7282   83.5149   12.0607 C.ar    1  UNL1        0.0059
     11 C          62.6919   82.9881   13.4647 C.ar    1  UNL1        0.0208
     12 C          62.8023   81.5134   13.7155 C.ar    1  UNL1        0.1013
     13 N          62.9490   80.5653   12.5623 N.ar    1  UNL1       -0.2165
     14 C          62.9853   81.0922   11.1583 C.ar    1  UNL1        0.2223
     15 F          63.1319   80.1442   10.0051 F       1  UNL1       -0.1832
     16 C          62.8748   82.5670   10.9075 C.ar    1  UNL1        0.0497
     17 C          64.1099   90.2246   14.5273 C.3     1  UNL1        0.1118
     18 C          67.3438   92.3161   13.5694 C.ar    1  UNL1        0.1384
     19 C          66.9097   92.9311   12.2720 C.ar    1  UNL1        0.0369
     20 C          65.5423   92.6439   11.7264 C.ar    1  UNL1        0.0028
     21 C          64.6091   91.7417   12.4781 C.ar    1  UNL1       -0.0036
     22 C          65.0432   91.1268   13.7755 C.ar    1  UNL1       -0.0101
     23 C          66.4106   91.4140   14.3212 C.ar    1  UNL1        0.0331
     24 C          68.8675   93.1112   15.5178 C.3     1  UNL1        0.2525
     25 O          68.7112   92.6033   14.1151 O.3     1  UNL1       -0.4714
@<TRIPOS>BOND
     1    24    25    1
     2    25    18    1
     3    18    19   ar
     4    19    20   ar
     5    20    21   ar
     6    21    22   ar
     7    22    17    1
     8    17     1    1
     9     1     2    2
    10     1     3   am
    11     3     5    1
    12     5     6   ar
    13     6     7   ar
    14     7    10    1
    15    10    11   ar
    16    11    12   ar
    17    12    13   ar
    18    13    14   ar
    19    14    15    1
    20    14    16   ar
    21     7     8   ar
    22     8     9   ar
    23    22    23   ar
    24    23    18   ar
    25     9     5   ar
    26    16    10   ar
    27     3     4    1
