@<TRIPOS>MOLECULE
*****
 37 41 0 0 0
SMALL
GASTEIGER

@<TRIPOS>ATOM
      1 O          62.7172   88.3521   12.8620 O.3     1  UNL1       -0.4511
      2 C          63.5461   89.5908   12.6932 C.ar    1  UNL1        0.1748
      3 C          63.4125   90.4190   11.4497 C.ar    1  UNL1        0.0708
      4 C          64.2414   91.6577   11.2809 C.ar    1  UNL1        0.1621
      5 F          64.1078   92.4858   10.0374 F       1  UNL1       -0.2026
      6 C          65.2039   92.0683   12.3556 C.ar    1  UNL1        0.1549
      7 C          65.3374   91.2402   13.5991 C.ar    1  UNL1        0.0553
      8 C          64.5086   90.0015   13.7679 C.ar    1  UNL1        0.1759
      9 F          64.6422   89.1733   15.0115 F       1  UNL1       -0.2009
     10 S          66.0327   93.3071   12.1868 S.O2    1  UNL1        0.0769
     11 O          65.5245   93.8260   13.4992 O.2     1  UNL1       -0.1498
     12 O          66.5410   92.7881   10.8745 O.2     1  UNL1       -0.1498
     13 N          66.8616   94.5458   12.0180 N.pl3   1  UNL1       -0.1984
     14 H          67.4728   94.8307   12.7354 H       1  UNL1        0.1753
     15 C          66.7593   95.3505   10.7562 C.ar    1  UNL1        0.1542
     16 C          65.6248   96.2558   10.3774 C.ar    1  UNL1        0.0725
     17 S          65.9378   96.8560    9.0388 S.2     1  UNL1       -0.0625
     18 C          67.2658   96.3216    8.5904 C.ar    1  UNL1        0.1360
     19 N          67.7734   95.3912    9.6518 N.ar    1  UNL1       -0.2203
     20 C          62.7806   86.0317   11.6951 C.ar    1  UNL1        0.0527
     21 C          62.4765   85.1654   10.5089 C.ar    1  UNL1        0.0159
     22 C          61.8047   85.7533    9.3035 C.ar    1  UNL1        0.0579
     23 CL         61.5005   84.8870    8.1172 Cl      1  UNL1       -0.0822
     24 C          61.4371   87.2074    9.2842 C.ar    1  UNL1        0.0145
     25 C          61.7412   88.0737   10.4704 C.ar    1  UNL1        0.0384
     26 C          62.4130   87.4858   11.6758 C.ar    1  UNL1        0.1468
     27 N          63.7883   83.9962   13.1046 N.ar    1  UNL1       -0.2499
     28 N          64.4497   83.8580   14.4437 N.ar    1  UNL1       -0.1677
     29 C          64.5227   85.2203   15.0674 C.ar    1  UNL1        0.1217
     30 C          63.9063   86.2004   14.1136 C.ar    1  UNL1        0.0413
     31 C          63.4524   85.4438   12.9006 C.ar    1  UNL1        0.0824
     32 N          63.1195   81.3069   10.7734 N.3     1  UNL1       -0.2693
     33 C          64.1802   82.3595   10.9024 C.3     1  UNL1        0.0982
     34 C          63.5113   82.8823   12.1389 C.3     1  UNL1        0.1369
     35 C          62.4504   81.8296   12.0099 C.3     1  UNL1        0.0982
     36 C          62.8607   78.7694   10.2798 C.3     1  UNL1        0.0188
     37 C          62.8425   80.1930    9.8077 C.3     1  UNL1        0.0723
@<TRIPOS>BOND
     1    36    37    1
     2    37    32    1
     3    32    33    1
     4    33    34    1
     5    34    27    1
     6    27    28   ar
     7    28    29   ar
     8    29    30   ar
     9    30    31   ar
    10    31    20    1
    11    20    21   ar
    12    21    22   ar
    13    22    23    1
    14    22    24   ar
    15    24    25   ar
    16    25    26   ar
    17    26     1    1
    18     1     2    1
    19     2     3   ar
    20     3     4   ar
    21     4     5    1
    22     4     6   ar
    23     6    10    1
    24    10    11    2
    25    10    12    2
    26    10    13    1
    27    13    15    1
    28    15    16   ar
    29    16    17   ar
    30    17    18   ar
    31    18    19   ar
    32     6     7   ar
    33     7     8   ar
    34     8     9    1
    35    34    35    1
    36    35    32    1
    37    31    27   ar
    38    26    20   ar
    39     8     2   ar
    40    19    15   ar
    41    13    14    1
@<TRIPOS>MOLECULE
*****
 37 41 0 0 0
SMALL
GASTEIGER

@<TRIPOS>ATOM
      1 O          62.3094   88.2852   12.3632 O.3     1  UNL1       -0.4511
      2 C          63.1716   89.5111   12.3025 C.ar    1  UNL1        0.1748
      3 C          64.1845   89.7697   13.3784 C.ar    1  UNL1        0.0708
      4 C          65.0467   90.9956   13.3177 C.ar    1  UNL1        0.1621
      5 F          66.0596   91.2542   14.3934 F       1  UNL1       -0.2026
      6 C          64.8961   91.9630   12.1811 C.ar    1  UNL1        0.1549
      7 C          63.8833   91.7044   11.1054 C.ar    1  UNL1        0.0553
      8 C          63.0210   90.4785   11.1661 C.ar    1  UNL1        0.1759
      9 F          62.0082   90.2199   10.0903 F       1  UNL1       -0.2009
     10 S          65.7583   93.1889   12.1204 S.O2    1  UNL1        0.0769
     11 O          65.4917   93.4484   13.5736 O.2     1  UNL1       -0.1498
     12 O          66.0250   92.9294   10.6673 O.2     1  UNL1       -0.1498
     13 N          66.6205   94.4148   12.0597 N.pl3   1  UNL1       -0.1984
     14 H          67.1913   94.6536   12.8255 H       1  UNL1        0.1753
     15 C          66.6131   95.2769   10.8322 C.ar    1  UNL1        0.1542
     16 C          65.4838   96.1529   10.3769 C.ar    1  UNL1        0.0725
     17 S          65.9063   96.8318    9.1078 S.2     1  UNL1       -0.0625
     18 C          67.2969   96.3754    8.7788 C.ar    1  UNL1        0.1360
     19 N          67.7336   95.4144    9.8446 N.ar    1  UNL1       -0.2203
     20 C          63.0221   85.8842   11.6722 C.ar    1  UNL1        0.0527
     21 C          63.1564   84.8202   10.6236 C.ar    1  UNL1        0.0159
     22 C          62.7123   85.0931    9.2171 C.ar    1  UNL1        0.0579
     23 CL         62.8465   84.0291    8.1683 Cl      1  UNL1       -0.0822
     24 C          62.1339   86.4301    8.8593 C.ar    1  UNL1        0.0145
     25 C          61.9996   87.4941    9.9080 C.ar    1  UNL1        0.0384
     26 C          62.4437   87.2212   11.3145 C.ar    1  UNL1        0.1468
     27 N          63.6330   84.2579   13.7038 N.ar    1  UNL1       -0.2499
     28 N          64.0913   84.4540   15.1185 N.ar    1  UNL1       -0.1677
     29 C          64.2078   85.9286   15.3679 C.ar    1  UNL1        0.1217
     30 C          63.8214   86.6438   14.1073 C.ar    1  UNL1        0.0413
     31 C          63.4662   85.6113   13.0788 C.ar    1  UNL1        0.0824
     32 N          63.0344   81.0759   12.0820 N.3     1  UNL1       -0.2693
     33 C          62.1685   82.1174   12.7265 C.3     1  UNL1        0.0982
     34 C          63.3850   82.9399   13.0320 C.3     1  UNL1        0.1369
     35 C          64.2510   81.8983   12.3875 C.3     1  UNL1        0.0982
     36 C          62.8361   79.6574    9.9144 C.3     1  UNL1        0.0188
     37 C          62.7864   79.7579   11.4102 C.3     1  UNL1        0.0723
@<TRIPOS>BOND
     1    36    37    1
     2    37    32    1
     3    32    33    1
     4    33    34    1
     5    34    27    1
     6    27    28   ar
     7    28    29   ar
     8    29    30   ar
     9    30    31   ar
    10    31    20    1
    11    20    21   ar
    12    21    22   ar
    13    22    23    1
    14    22    24   ar
    15    24    25   ar
    16    25    26   ar
    17    26     1    1
    18     1     2    1
    19     2     3   ar
    20     3     4   ar
    21     4     5    1
    22     4     6   ar
    23     6    10    1
    24    10    11    2
    25    10    12    2
    26    10    13    1
    27    13    15    1
    28    15    16   ar
    29    16    17   ar
    30    17    18   ar
    31    18    19   ar
    32     6     7   ar
    33     7     8   ar
    34     8     9    1
    35    34    35    1
    36    35    32    1
    37    31    27   ar
    38    26    20   ar
    39     8     2   ar
    40    19    15   ar
    41    13    14    1
@<TRIPOS>MOLECULE
*****
 37 41 0 0 0
SMALL
GASTEIGER

@<TRIPOS>ATOM
      1 O          63.2595   90.3954   14.8540 O.3     1  UNL1       -0.4511
      2 C          63.4278   88.9070   14.9346 C.ar    1  UNL1        0.1748
      3 C          63.5581   88.0978   13.6783 C.ar    1  UNL1        0.0708
      4 C          63.7265   86.6095   13.7589 C.ar    1  UNL1        0.1621
      5 F          63.8568   85.8003   12.5026 F       1  UNL1       -0.2026
      6 C          63.7646   85.9303   15.0959 C.ar    1  UNL1        0.1549
      7 C          63.6343   86.7395   16.3521 C.ar    1  UNL1        0.0553
      8 C          63.4659   88.2279   16.2715 C.ar    1  UNL1        0.1759
      9 F          63.3357   89.0371   17.5278 F       1  UNL1       -0.2009
     10 S          63.9330   84.4420   15.1765 S.O2    1  UNL1        0.0769
     11 O          62.5165   84.3075   15.6515 O.2     1  UNL1       -0.1498
     12 O          65.3494   84.5765   14.7015 O.2     1  UNL1       -0.1498
     13 N          64.1014   82.9537   15.2571 N.pl3   1  UNL1       -0.1984
     14 H          64.5694   82.5521   16.0245 H       1  UNL1        0.1753
     15 C          63.5565   82.0772   14.1685 C.ar    1  UNL1        0.1542
     16 C          63.5562   82.3904   12.7015 C.ar    1  UNL1        0.0725
     17 S          62.9159   81.2405   11.9821 S.2     1  UNL1       -0.0625
     18 C          62.5204   80.2165   13.0045 C.ar    1  UNL1        0.1360
     19 N          62.9164   80.7336   14.3557 N.ar    1  UNL1       -0.2203
     20 C          64.9590   91.8265   13.5074 C.ar    1  UNL1        0.0527
     21 C          66.1656   92.7168   13.4701 C.ar    1  UNL1        0.0159
     22 C          66.8793   93.0664   14.7423 C.ar    1  UNL1        0.0579
     23 CL         68.0859   93.9568   14.7051 Cl      1  UNL1       -0.0822
     24 C          66.3863   92.5256   16.0517 C.ar    1  UNL1        0.0145
     25 C          65.1798   91.6353   16.0889 C.ar    1  UNL1        0.0384
     26 C          64.4661   91.2857   14.8168 C.ar    1  UNL1        0.1468
     27 N          64.4423   92.1383   10.9033 N.ar    1  UNL1       -0.2499
     28 N          63.5281   91.4747    9.9165 N.ar    1  UNL1       -0.1677
     29 C          62.7660   90.4032   10.6384 C.ar    1  UNL1        0.1217
     30 C          63.2093   90.4046   12.0714 C.ar    1  UNL1        0.0413
     31 C          64.2453   91.4769   12.2351 C.ar    1  UNL1        0.0824
     32 N          66.7245   94.8592   10.1947 N.3     1  UNL1       -0.2693
     33 C          65.3594   94.7520   10.8070 C.3     1  UNL1        0.0982
     34 C          65.3876   93.2653   10.6098 C.3     1  UNL1        0.1369
     35 C          66.7528   93.3726    9.9975 C.3     1  UNL1        0.0982
     36 C          67.5664   96.7335    8.6047 C.3     1  UNL1        0.0188
     37 C          67.6698   95.9863    9.9012 C.3     1  UNL1        0.0723
@<TRIPOS>BOND
     1    36    37    1
     2    37    32    1
     3    32    33    1
     4    33    34    1
     5    34    27    1
     6    27    28   ar
     7    28    29   ar
     8    29    30   ar
     9    30    31   ar
    10    31    20    1
    11    20    21   ar
    12    21    22   ar
    13    22    23    1
    14    22    24   ar
    15    24    25   ar
    16    25    26   ar
    17    26     1    1
    18     1     2    1
    19     2     3   ar
    20     3     4   ar
    21     4     5    1
    22     4     6   ar
    23     6    10    1
    24    10    11    2
    25    10    12    2
    26    10    13    1
    27    13    15    1
    28    15    16   ar
    29    16    17   ar
    30    17    18   ar
    31    18    19   ar
    32     6     7   ar
    33     7     8   ar
    34     8     9    1
    35    34    35    1
    36    35    32    1
    37    31    27   ar
    38    26    20   ar
    39     8     2   ar
    40    19    15   ar
    41    13    14    1
@<TRIPOS>MOLECULE
*****
 37 41 0 0 0
SMALL
GASTEIGER

@<TRIPOS>ATOM
      1 O          62.8794   89.2090   13.6376 O.3     1  UNL1       -0.4511
      2 C          63.7800   90.2569   13.0538 C.ar    1  UNL1        0.1748
      3 C          63.4584   90.8639   11.7203 C.ar    1  UNL1        0.0708
      4 C          64.3590   91.9118   11.1365 C.ar    1  UNL1        0.1621
      5 F          64.0375   92.5189    9.8031 F       1  UNL1       -0.2026
      6 C          65.5812   92.3527   11.8862 C.ar    1  UNL1        0.1549
      7 C          65.9028   91.7456   13.2196 C.ar    1  UNL1        0.0553
      8 C          65.0021   90.6977   13.8034 C.ar    1  UNL1        0.1759
      9 F          65.3237   90.0907   15.1369 F       1  UNL1       -0.2009
     10 S          66.4819   93.4006   11.3024 S.O2    1  UNL1        0.0769
     11 O          66.1269   94.3307   12.4244 O.2     1  UNL1       -0.1498
     12 O          66.8368   92.4704   10.1804 O.2     1  UNL1       -0.1498
     13 N          67.3825   94.4485   10.7186 N.pl3   1  UNL1       -0.1984
     14 H          68.3166   94.5189   11.0213 H       1  UNL1        0.1753
     15 C          66.8597   95.3891    9.6736 C.ar    1  UNL1        0.1542
     16 C          67.6261   95.9111    8.4946 C.ar    1  UNL1        0.0725
     17 S          66.7190   96.8175    7.7164 S.2     1  UNL1       -0.0625
     18 C          65.3919   96.8557    8.4146 C.ar    1  UNL1        0.1360
     19 N          65.4789   95.9729    9.6242 N.ar    1  UNL1       -0.2203
     20 C          62.1876   87.3180   11.9957 C.ar    1  UNL1        0.0527
     21 C          62.2949   85.8950   11.5338 C.ar    1  UNL1        0.0159
     22 C          63.2014   84.9397   12.2520 C.ar    1  UNL1        0.0579
     23 CL         63.3087   83.5166   11.7902 Cl      1  UNL1       -0.0822
     24 C          64.0005   85.4076   13.4321 C.ar    1  UNL1        0.0145
     25 C          63.8932   86.8306   13.8940 C.ar    1  UNL1        0.0384
     26 C          62.9867   87.7859   13.1757 C.ar    1  UNL1        0.1468
     27 N          60.7975   88.1363    9.8642 N.ar    1  UNL1       -0.2499
     28 N          59.9166   89.3116    9.5597 N.ar    1  UNL1       -0.1677
     29 C          59.8560   90.1751   10.7848 C.ar    1  UNL1        0.1217
     30 C          60.6993   89.5334   11.8464 C.ar    1  UNL1        0.0413
     31 C          61.2812   88.2733   11.2775 C.ar    1  UNL1        0.0824
     32 N          61.6132   85.4411    7.5872 N.3     1  UNL1       -0.2693
     33 C          60.3440   86.1019    8.0373 C.3     1  UNL1        0.0982
     34 C          61.1353   87.0199    8.9210 C.3     1  UNL1        0.1369
     35 C          62.4045   86.3591    8.4710 C.3     1  UNL1        0.0982
     36 C          62.4477   84.6342    5.2629 C.3     1  UNL1        0.0188
     37 C          61.9510   84.3247    6.6441 C.3     1  UNL1        0.0723
@<TRIPOS>BOND
     1    36    37    1
     2    37    32    1
     3    32    33    1
     4    33    34    1
     5    34    27    1
     6    27    28   ar
     7    28    29   ar
     8    29    30   ar
     9    30    31   ar
    10    31    20    1
    11    20    21   ar
    12    21    22   ar
    13    22    23    1
    14    22    24   ar
    15    24    25   ar
    16    25    26   ar
    17    26     1    1
    18     1     2    1
    19     2     3   ar
    20     3     4   ar
    21     4     5    1
    22     4     6   ar
    23     6    10    1
    24    10    11    2
    25    10    12    2
    26    10    13    1
    27    13    15    1
    28    15    16   ar
    29    16    17   ar
    30    17    18   ar
    31    18    19   ar
    32     6     7   ar
    33     7     8   ar
    34     8     9    1
    35    34    35    1
    36    35    32    1
    37    31    27   ar
    38    26    20   ar
    39     8     2   ar
    40    19    15   ar
    41    13    14    1
@<TRIPOS>MOLECULE
*****
 37 41 0 0 0
SMALL
GASTEIGER

@<TRIPOS>ATOM
      1 O          61.6761   87.7023   11.7597 O.3     1  UNL1       -0.4511
      2 C          62.5832   88.8595   12.0568 C.ar    1  UNL1        0.1748
      3 C          63.5503   88.7799   13.2007 C.ar    1  UNL1        0.0708
      4 C          64.4574   89.9370   13.4977 C.ar    1  UNL1        0.1621
      5 F          65.4245   89.8575   14.6416 F       1  UNL1       -0.2026
      6 C          64.3974   91.1737   12.6509 C.ar    1  UNL1        0.1549
      7 C          63.4304   91.2532   11.5070 C.ar    1  UNL1        0.0553
      8 C          62.5232   90.0961   11.2100 C.ar    1  UNL1        0.1759
      9 F          61.5561   90.1756   10.0661 F       1  UNL1       -0.2009
     10 S          65.3045   92.3308   12.9479 S.O2    1  UNL1        0.0769
     11 O          64.9243   92.2568   14.3970 O.2     1  UNL1       -0.1498
     12 O          65.6847   92.4048   11.4988 O.2     1  UNL1       -0.1498
     13 N          66.2116   93.4879   13.2449 N.pl3   1  UNL1       -0.1984
     14 H          66.0344   94.3685   12.8419 H       1  UNL1        0.1753
     15 C          67.3888   93.3034   14.1561 C.ar    1  UNL1        0.1542
     16 C          67.7025   94.1278   15.3694 C.ar    1  UNL1        0.0725
     17 S          68.9665   93.5961   15.9771 S.2     1  UNL1       -0.0625
     18 C          69.4341   92.4429   15.1395 C.ar    1  UNL1        0.1360
     19 N          68.4591   92.2620   14.0141 N.ar    1  UNL1       -0.2203
     20 C          62.6786   85.5447   10.7159 C.ar    1  UNL1        0.0527
     21 C          62.9349   84.6791    9.5180 C.ar    1  UNL1        0.0159
     22 C          62.4449   85.1055    8.1659 C.ar    1  UNL1        0.0579
     23 CL         62.7012   84.2399    6.9679 Cl      1  UNL1       -0.0822
     24 C          61.6987   86.3976    8.0118 C.ar    1  UNL1        0.0145
     25 C          61.4424   87.2632    9.2097 C.ar    1  UNL1        0.0384
     26 C          61.9324   86.8367   10.5617 C.ar    1  UNL1        0.1468
     27 N          63.4456   83.7092   12.5014 N.ar    1  UNL1       -0.2499
     28 N          63.9158   83.7461   13.9253 N.ar    1  UNL1       -0.1677
     29 C          63.9294   85.1780   14.3719 C.ar    1  UNL1        0.1217
     30 C          63.4676   86.0260   13.2241 C.ar    1  UNL1        0.0413
     31 C          63.1686   85.1183   12.0680 C.ar    1  UNL1        0.0824
     32 N          63.0487   80.7396   10.4671 N.3     1  UNL1       -0.2693
     33 C          62.3975   81.2682   11.7106 C.3     1  UNL1        0.0982
     34 C          63.2812   82.4792   11.6588 C.3     1  UNL1        0.1369
     35 C          63.9324   81.9505   10.4152 C.3     1  UNL1        0.0982
     36 C          62.7554   78.1652   10.2772 C.3     1  UNL1        0.0188
     37 C          62.8843   79.5096    9.6245 C.3     1  UNL1        0.0723
@<TRIPOS>BOND
     1    36    37    1
     2    37    32    1
     3    32    33    1
     4    33    34    1
     5    34    27    1
     6    27    28   ar
     7    28    29   ar
     8    29    30   ar
     9    30    31   ar
    10    31    20    1
    11    20    21   ar
    12    21    22   ar
    13    22    23    1
    14    22    24   ar
    15    24    25   ar
    16    25    26   ar
    17    26     1    1
    18     1     2    1
    19     2     3   ar
    20     3     4   ar
    21     4     5    1
    22     4     6   ar
    23     6    10    1
    24    10    11    2
    25    10    12    2
    26    10    13    1
    27    13    15    1
    28    15    16   ar
    29    16    17   ar
    30    17    18   ar
    31    18    19   ar
    32     6     7   ar
    33     7     8   ar
    34     8     9    1
    35    34    35    1
    36    35    32    1
    37    31    27   ar
    38    26    20   ar
    39     8     2   ar
    40    19    15   ar
    41    13    14    1
@<TRIPOS>MOLECULE
*****
 37 41 0 0 0
SMALL
GASTEIGER

@<TRIPOS>ATOM
      1 O          64.2279   89.2772   14.5908 O.3     1  UNL1       -0.4511
      2 C          63.9756   87.8076   14.7537 C.ar    1  UNL1        0.1748
      3 C          64.1322   86.8853   13.5811 C.ar    1  UNL1        0.0708
      4 C          63.8798   85.4156   13.7440 C.ar    1  UNL1        0.1621
      5 F          64.0364   84.4933   12.5715 F       1  UNL1       -0.2026
      6 C          63.4709   84.8684   15.0794 C.ar    1  UNL1        0.1549
      7 C          63.3143   85.7907   16.2519 C.ar    1  UNL1        0.0553
      8 C          63.5667   87.2603   16.0890 C.ar    1  UNL1        0.1759
      9 F          63.4101   88.1826   17.2616 F       1  UNL1       -0.2009
     10 S          63.2186   83.3987   15.2423 S.O2    1  UNL1        0.0769
     11 O          64.6920   83.1626   15.3946 O.2     1  UNL1       -0.1498
     12 O          61.7451   83.6349   15.0900 O.2     1  UNL1       -0.1498
     13 N          62.9662   81.9291   15.4051 N.pl3   1  UNL1       -0.1984
     14 H          62.8877   81.5400   16.3061 H       1  UNL1        0.1753
     15 C          62.8336   81.0523   14.1953 C.ar    1  UNL1        0.1542
     16 C          63.0274   81.4803   12.7707 C.ar    1  UNL1        0.0725
     17 S          62.7975   80.2862   11.8926 S.2     1  UNL1       -0.0625
     18 C          62.4615   79.1201   12.7744 C.ar    1  UNL1        0.1360
     19 N          62.4838   79.5937   14.1975 N.ar    1  UNL1       -0.2203
     20 C          64.5060   91.2991   12.9831 C.ar    1  UNL1        0.0527
     21 C          64.2015   91.9722   11.6777 C.ar    1  UNL1        0.0159
     22 C          63.3142   91.2966   10.6745 C.ar    1  UNL1        0.0579
     23 CL         63.0097   91.9697    9.3691 Cl      1  UNL1       -0.0822
     24 C          62.7316   89.9479   10.9768 C.ar    1  UNL1        0.0145
     25 C          63.0361   89.2747   12.2822 C.ar    1  UNL1        0.0384
     26 C          63.9233   89.9504   13.2853 C.ar    1  UNL1        0.1468
     27 N          66.4215   93.0253   13.6877 N.ar    1  UNL1       -0.2499
     28 N          67.0718   93.4183   14.9810 N.ar    1  UNL1       -0.1677
     29 C          66.4454   92.6106   16.0790 C.ar    1  UNL1        0.1217
     30 C          65.4080   91.7185   15.4642 C.ar    1  UNL1        0.0413
     31 C          65.3932   91.9748   13.9863 C.ar    1  UNL1        0.0824
     32 N          67.1979   94.3755   10.4185 N.3     1  UNL1       -0.2693
     33 C          66.4418   94.8674   11.6169 C.3     1  UNL1        0.0982
     34 C          66.7431   93.5846   12.3336 C.3     1  UNL1        0.1369
     35 C          67.4992   93.0927   11.1350 C.3     1  UNL1        0.0982
     36 C          67.3308   96.3980    8.7931 C.3     1  UNL1        0.0188
     37 C          67.5194   94.9349    9.0643 C.3     1  UNL1        0.0723
@<TRIPOS>BOND
     1    36    37    1
     2    37    32    1
     3    32    33    1
     4    33    34    1
     5    34    27    1
     6    27    28   ar
     7    28    29   ar
     8    29    30   ar
     9    30    31   ar
    10    31    20    1
    11    20    21   ar
    12    21    22   ar
    13    22    23    1
    14    22    24   ar
    15    24    25   ar
    16    25    26   ar
    17    26     1    1
    18     1     2    1
    19     2     3   ar
    20     3     4   ar
    21     4     5    1
    22     4     6   ar
    23     6    10    1
    24    10    11    2
    25    10    12    2
    26    10    13    1
    27    13    15    1
    28    15    16   ar
    29    16    17   ar
    30    17    18   ar
    31    18    19   ar
    32     6     7   ar
    33     7     8   ar
    34     8     9    1
    35    34    35    1
    36    35    32    1
    37    31    27   ar
    38    26    20   ar
    39     8     2   ar
    40    19    15   ar
    41    13    14    1
@<TRIPOS>MOLECULE
*****
 37 41 0 0 0
SMALL
GASTEIGER

@<TRIPOS>ATOM
      1 O          63.1204   86.8150   12.5964 O.3     1  UNL1       -0.4511
      2 C          63.6911   88.1079   13.0991 C.ar    1  UNL1        0.1748
      3 C          63.4427   89.3808   12.3454 C.ar    1  UNL1        0.0708
      4 C          64.0134   90.6737   12.8482 C.ar    1  UNL1        0.1621
      5 F          63.7649   91.9465   12.0945 F       1  UNL1       -0.2026
      6 C          64.8325   90.6936   14.1046 C.ar    1  UNL1        0.1549
      7 C          65.0810   89.4208   14.8583 C.ar    1  UNL1        0.0553
      8 C          64.5103   88.1279   14.3555 C.ar    1  UNL1        0.1759
      9 F          64.7588   86.8550   15.1093 F       1  UNL1       -0.2009
     10 S          65.4032   91.9865   14.6074 S.O2    1  UNL1        0.0769
     11 O          66.2767   92.0739   13.3911 O.2     1  UNL1       -0.1498
     12 O          64.5298   91.8991   15.8237 O.2     1  UNL1       -0.1498
     13 N          65.9739   93.2794   15.1101 N.pl3   1  UNL1       -0.1984
     14 H          65.4087   94.0844   15.1502 H       1  UNL1        0.1753
     15 C          67.4060   93.3457   15.5518 C.ar    1  UNL1        0.1542
     16 C          68.2554   92.1811   15.9670 C.ar    1  UNL1        0.0725
     17 S          69.6143   92.7038   16.3276 S.2     1  UNL1       -0.0625
     18 C          69.6048   94.1914   16.1352 C.ar    1  UNL1        0.1360
     19 N          68.2400   94.5881   15.6557 N.ar    1  UNL1       -0.2203
     20 C          62.0286   85.6833   10.5282 C.ar    1  UNL1        0.0527
     21 C          61.0039   85.6914    9.4329 C.ar    1  UNL1        0.0159
     22 C          60.0463   86.8393    9.3103 C.ar    1  UNL1        0.0579
     23 CL         59.0215   86.8475    8.2149 Cl      1  UNL1       -0.0822
     24 C          60.1133   87.9792   10.2831 C.ar    1  UNL1        0.0145
     25 C          61.1380   87.9710   11.3784 C.ar    1  UNL1        0.0384
     26 C          62.0957   86.8231   11.5010 C.ar    1  UNL1        0.1468
     27 N          63.4241   83.8850   11.9297 N.ar    1  UNL1       -0.2499
     28 N          64.3828   82.7839   11.5855 N.ar    1  UNL1       -0.1677
     29 C          64.5375   82.7537   10.0937 C.ar    1  UNL1        0.1217
     30 C          63.6745   83.8361    9.5161 C.ar    1  UNL1        0.0413
     31 C          62.9864   84.5353   10.6508 C.ar    1  UNL1        0.0824
     32 N          62.3543   84.8108   15.2633 N.3     1  UNL1       -0.2693
     33 C          61.6554   84.5024   13.9724 C.3     1  UNL1        0.0982
     34 C          62.9809   84.2685   13.3105 C.3     1  UNL1        0.1369
     35 C          63.6799   84.5769   14.6015 C.3     1  UNL1        0.0982
     36 C          62.6297   86.2809   17.3876 C.3     1  UNL1        0.0188
     37 C          61.9111   85.1943   16.6440 C.3     1  UNL1        0.0723
@<TRIPOS>BOND
     1    36    37    1
     2    37    32    1
     3    32    33    1
     4    33    34    1
     5    34    27    1
     6    27    28   ar
     7    28    29   ar
     8    29    30   ar
     9    30    31   ar
    10    31    20    1
    11    20    21   ar
    12    21    22   ar
    13    22    23    1
    14    22    24   ar
    15    24    25   ar
    16    25    26   ar
    17    26     1    1
    18     1     2    1
    19     2     3   ar
    20     3     4   ar
    21     4     5    1
    22     4     6   ar
    23     6    10    1
    24    10    11    2
    25    10    12    2
    26    10    13    1
    27    13    15    1
    28    15    16   ar
    29    16    17   ar
    30    17    18   ar
    31    18    19   ar
    32     6     7   ar
    33     7     8   ar
    34     8     9    1
    35    34    35    1
    36    35    32    1
    37    31    27   ar
    38    26    20   ar
    39     8     2   ar
    40    19    15   ar
    41    13    14    1
@<TRIPOS>MOLECULE
*****
 37 41 0 0 0
SMALL
GASTEIGER

@<TRIPOS>ATOM
      1 O          62.0021   86.8678   12.0605 O.3     1  UNL1       -0.4511
      2 C          62.7676   88.1420   12.2614 C.ar    1  UNL1        0.1748
      3 C          63.6512   88.3046   13.4627 C.ar    1  UNL1        0.0708
      4 C          64.4167   89.5788   13.6636 C.ar    1  UNL1        0.1621
      5 F          65.3003   89.7415   14.8647 F       1  UNL1       -0.2026
      6 C          64.2987   90.6904   12.6632 C.ar    1  UNL1        0.1549
      7 C          63.4152   90.5277   11.4621 C.ar    1  UNL1        0.0553
      8 C          62.6496   89.2535   11.2612 C.ar    1  UNL1        0.1759
      9 F          61.7661   89.0908   10.0599 F       1  UNL1       -0.2009
     10 S          65.0643   91.9645   12.8641 S.O2    1  UNL1        0.0769
     11 O          64.6515   91.9852   14.3061 O.2     1  UNL1       -0.1498
     12 O          65.4770   91.9439   11.4222 O.2     1  UNL1       -0.1498
     13 N          65.8298   93.2387   13.0650 N.pl3   1  UNL1       -0.1984
     14 H          65.5798   94.0476   12.5626 H       1  UNL1        0.1753
     15 C          66.9763   93.2804   14.0314 C.ar    1  UNL1        0.1542
     16 C          68.1142   92.3049   14.0921 C.ar    1  UNL1        0.0725
     17 S          69.0274   92.7265   15.2049 S.2     1  UNL1       -0.0625
     18 C          68.4538   93.9626   15.8321 C.ar    1  UNL1        0.1360
     19 N          67.1862   94.3049   15.1068 N.ar    1  UNL1       -0.2203
     20 C          63.4460   84.7156   12.2438 C.ar    1  UNL1        0.0527
     21 C          64.1088   83.5369   11.5949 C.ar    1  UNL1        0.0159
     22 C          63.9905   83.3314   10.1138 C.ar    1  UNL1        0.0579
     23 CL         64.6533   82.1526    9.4648 Cl      1  UNL1       -0.0822
     24 C          63.2094   84.3047    9.2815 C.ar    1  UNL1        0.0145
     25 C          62.5466   85.4835    9.9304 C.ar    1  UNL1        0.0384
     26 C          62.6649   85.6890   11.4115 C.ar    1  UNL1        0.1468
     27 N          62.9961   84.0274   14.7872 N.ar    1  UNL1       -0.2499
     28 N          63.3520   84.6103   16.1227 N.ar    1  UNL1       -0.1677
     29 C          64.1402   85.8644   15.8857 C.ar    1  UNL1        0.1217
     30 C          64.2713   86.0565   14.4039 C.ar    1  UNL1        0.0413
     31 C          63.5642   84.9212   13.7250 C.ar    1  UNL1        0.0824
     32 N          61.0983   80.9946   14.2262 N.3     1  UNL1       -0.2693
     33 C          60.7518   82.4380   14.4416 C.3     1  UNL1        0.0982
     34 C          62.2099   82.7712   14.5548 C.3     1  UNL1        0.1369
     35 C          62.5564   81.3277   14.3394 C.3     1  UNL1        0.0982
     36 C          58.8935   79.6423   14.4715 C.3     1  UNL1        0.0188
     37 C          60.3122   79.7384   13.9938 C.3     1  UNL1        0.0723
@<TRIPOS>BOND
     1    36    37    1
     2    37    32    1
     3    32    33    1
     4    33    34    1
     5    34    27    1
     6    27    28   ar
     7    28    29   ar
     8    29    30   ar
     9    30    31   ar
    10    31    20    1
    11    20    21   ar
    12    21    22   ar
    13    22    23    1
    14    22    24   ar
    15    24    25   ar
    16    25    26   ar
    17    26     1    1
    18     1     2    1
    19     2     3   ar
    20     3     4   ar
    21     4     5    1
    22     4     6   ar
    23     6    10    1
    24    10    11    2
    25    10    12    2
    26    10    13    1
    27    13    15    1
    28    15    16   ar
    29    16    17   ar
    30    17    18   ar
    31    18    19   ar
    32     6     7   ar
    33     7     8   ar
    34     8     9    1
    35    34    35    1
    36    35    32    1
    37    31    27   ar
    38    26    20   ar
    39     8     2   ar
    40    19    15   ar
    41    13    14    1
@<TRIPOS>MOLECULE
*****
 37 41 0 0 0
SMALL
GASTEIGER

@<TRIPOS>ATOM
      1 O          63.7634   87.6203   13.6084 O.3     1  UNL1       -0.4511
      2 C          63.5825   86.1319   13.5654 C.ar    1  UNL1        0.1748
      3 C          63.1032   85.4707   12.3071 C.ar    1  UNL1        0.0708
      4 C          62.9223   83.9823   12.2640 C.ar    1  UNL1        0.1621
      5 F          62.4430   83.3211   11.0058 F       1  UNL1       -0.2026
      6 C          63.2208   83.1550   13.4792 C.ar    1  UNL1        0.1549
      7 C          63.7001   83.8162   14.7374 C.ar    1  UNL1        0.0553
      8 C          63.8809   85.3046   14.7805 C.ar    1  UNL1        0.1759
      9 F          64.3603   85.9658   16.0388 F       1  UNL1       -0.2009
     10 S          63.0399   81.6666   13.4362 S.O2    1  UNL1        0.0769
     11 O          61.5855   81.8339   13.7628 O.2     1  UNL1       -0.1498
     12 O          64.4943   81.4993   13.1095 O.2     1  UNL1       -0.1498
     13 N          62.8591   80.1782   13.3931 N.pl3   1  UNL1       -0.1984
     14 H          62.7813   79.6673   14.2311 H       1  UNL1        0.1753
     15 C          62.7967   79.4681   12.0732 C.ar    1  UNL1        0.1542
     16 C          62.9185   80.1072   10.7216 C.ar    1  UNL1        0.0725
     17 S          62.7987   79.0285    9.6863 S.2     1  UNL1       -0.0625
     18 C          62.6028   77.7226   10.3980 C.ar    1  UNL1        0.1360
     19 N          62.6016   77.9944   11.8732 N.ar    1  UNL1       -0.2203
     20 C          63.2969   89.9681   12.5983 C.ar    1  UNL1        0.0527
     21 C          62.7637   90.8210   11.4855 C.ar    1  UNL1        0.0159
     22 C          62.1637   90.1788   10.2700 C.ar    1  UNL1        0.0579
     23 CL         61.6305   91.0316    9.1571 Cl      1  UNL1       -0.0822
     24 C          62.0969   88.6838   10.1672 C.ar    1  UNL1        0.0145
     25 C          62.6301   87.8310   11.2800 C.ar    1  UNL1        0.0384
     26 C          63.2301   88.4732   12.4956 C.ar    1  UNL1        0.1468
     27 N          65.0329   91.5899   13.8237 N.ar    1  UNL1       -0.2499
     28 N          65.3044   91.9706   15.2489 N.ar    1  UNL1       -0.1677
     29 C          64.3363   91.2263   16.1200 C.ar    1  UNL1        0.1217
     30 C          63.4665   90.3856   15.2331 C.ar    1  UNL1        0.0413
     31 C          63.8970   90.6103   13.8139 C.ar    1  UNL1        0.0824
     32 N          66.8081   92.8198   10.9168 N.3     1  UNL1       -0.2693
     33 C          67.1901   92.4760   12.3259 C.3     1  UNL1        0.0982
     34 C          65.7682   92.0993   12.6196 C.3     1  UNL1        0.1369
     35 C          65.3862   92.4431   11.2104 C.3     1  UNL1        0.0982
     36 C          67.6095   94.8031    9.4424 C.3     1  UNL1        0.0188
     37 C          67.5434   93.3292    9.7127 C.3     1  UNL1        0.0723
@<TRIPOS>BOND
     1    36    37    1
     2    37    32    1
     3    32    33    1
     4    33    34    1
     5    34    27    1
     6    27    28   ar
     7    28    29   ar
     8    29    30   ar
     9    30    31   ar
    10    31    20    1
    11    20    21   ar
    12    21    22   ar
    13    22    23    1
    14    22    24   ar
    15    24    25   ar
    16    25    26   ar
    17    26     1    1
    18     1     2    1
    19     2     3   ar
    20     3     4   ar
    21     4     5    1
    22     4     6   ar
    23     6    10    1
    24    10    11    2
    25    10    12    2
    26    10    13    1
    27    13    15    1
    28    15    16   ar
    29    16    17   ar
    30    17    18   ar
    31    18    19   ar
    32     6     7   ar
    33     7     8   ar
    34     8     9    1
    35    34    35    1
    36    35    32    1
    37    31    27   ar
    38    26    20   ar
    39     8     2   ar
    40    19    15   ar
    41    13    14    1
