@<TRIPOS>MOLECULE
*****
 27 29 0 0 0
SMALL
GASTEIGER

@<TRIPOS>ATOM
      1 C          66.3447   92.9843   13.6018 C.ar    1  UNL1        0.1194
      2 N          67.3146   93.3363   14.6905 N.ar    1  UNL1       -0.2208
      3 C          67.0497   92.8996   16.1009 C.ar    1  UNL1        0.2002
      4 N          65.8150   92.1110   16.4225 N.ar    1  UNL1       -0.2058
      5 C          64.8452   91.7590   15.3338 C.ar    1  UNL1        0.1695
      6 C          65.1100   92.1957   13.9234 C.ar    1  UNL1        0.1834
      7 O          64.1401   91.8436   12.8346 O.3     1  UNL1       -0.5020
      8 H          63.3688   91.3510   13.0355 H       1  UNL1        0.2924
      9 C          67.4041   94.7309    7.9602 C.3     1  UNL1        0.0310
     10 C          67.1393   94.2942    9.3706 C.ar    1  UNL1       -0.0218
     11 C          66.4955   95.2404   10.3403 C.ar    1  UNL1       -0.0042
     12 C          66.2306   94.8037   11.7506 C.ar    1  UNL1        0.0013
     13 C          66.6096   93.4210   12.1914 C.ar    1  UNL1        0.0208
     14 C          67.2534   92.4748   11.2217 C.ar    1  UNL1        0.0013
     15 C          67.5182   92.9115    9.8113 C.ar    1  UNL1       -0.0042
     16 N          63.6104   90.9703   15.6554 N.pl3   1  UNL1       -0.2954
     17 H          62.7616   91.4359   15.8342 H       1  UNL1        0.1537
     18 C          63.6690   89.4723   15.7046 C.ar    1  UNL1        0.0494
     19 C          64.3243   88.7103   14.5910 C.ar    1  UNL1        0.0144
     20 C          64.3829   87.2123   14.6402 C.ar    1  UNL1       -0.0017
     21 C          63.7861   86.4762   15.8031 C.ar    1  UNL1       -0.0065
     22 C          63.1308   87.2381   16.9166 C.ar    1  UNL1       -0.0017
     23 C          63.0722   88.7362   16.8674 C.ar    1  UNL1        0.0144
     24 C          63.8447   84.9781   15.8523 C.3     1  UNL1        0.0922
     25 N          64.8527   84.2393   15.0228 N.3     1  UNL1       -0.3175
     26 H          64.6401   84.3694   14.0337 H       1  UNL1        0.1192
     27 H          64.8176   83.2456   15.2502 H       1  UNL1        0.1192
@<TRIPOS>BOND
     1     9    10    1
     2    10    11   ar
     3    11    12   ar
     4    12    13   ar
     5    13     1    1
     6     1     2   ar
     7     2     3   ar
     8     3     4   ar
     9     4     5   ar
    10     5    16    1
    11    16    18    1
    12    18    19   ar
    13    19    20   ar
    14    20    21   ar
    15    21    24    1
    16    24    25    1
    17    21    22   ar
    18    22    23   ar
    19     5     6   ar
    20     6     7    1
    21    13    14   ar
    22    14    15   ar
    23    15    10   ar
    24     6     1   ar
    25    23    18   ar
    26    16    17    1
    27    25    26    1
    28    25    27    1
    29     7     8    1
@<TRIPOS>MOLECULE
*****
 27 29 0 0 0
SMALL
GASTEIGER

@<TRIPOS>ATOM
      1 C          62.0122   87.4834   10.4583 C.ar    1  UNL1        0.1194
      2 N          61.1923   88.0175    9.3215 N.ar    1  UNL1       -0.2208
      3 C          60.7466   89.4497    9.3263 C.ar    1  UNL1        0.2002
      4 N          61.1207   90.3478   10.4679 N.ar    1  UNL1       -0.2058
      5 C          61.9406   89.8137   11.6047 C.ar    1  UNL1        0.1695
      6 C          62.3864   88.3815   11.5999 C.ar    1  UNL1        0.1834
      7 O          63.2063   87.8474   12.7369 O.3     1  UNL1       -0.5020
      8 H          63.4400   88.4085   13.4500 H       1  UNL1        0.2924
      9 C          63.7953   81.7545   10.4392 C.3     1  UNL1        0.0310
     10 C          63.3495   83.1867   10.4440 C.ar    1  UNL1       -0.0218
     11 C          62.7678   83.7870   11.6895 C.ar    1  UNL1       -0.0042
     12 C          62.3221   85.2192   11.6942 C.ar    1  UNL1        0.0013
     13 C          62.4580   86.0512   10.4535 C.ar    1  UNL1        0.0208
     14 C          63.0397   85.4509    9.2081 C.ar    1  UNL1        0.0013
     15 C          63.4855   84.0187    9.2033 C.ar    1  UNL1       -0.0042
     16 N          62.3148   90.7119   12.7464 N.pl3   1  UNL1       -0.2954
     17 H          61.6161   91.0700   13.3405 H       1  UNL1        0.1537
     18 C          63.7534   91.0644   12.9830 C.ar    1  UNL1        0.0494
     19 C          64.4282   90.6475   14.2562 C.ar    1  UNL1        0.0144
     20 C          65.8668   91.0000   14.4928 C.ar    1  UNL1       -0.0017
     21 C          66.6308   91.7693   13.4562 C.ar    1  UNL1       -0.0065
     22 C          65.9561   92.1861   12.1830 C.ar    1  UNL1       -0.0017
     23 C          64.5174   91.8337   11.9464 C.ar    1  UNL1        0.0144
     24 C          68.0695   92.1218   13.6927 C.3     1  UNL1        0.0922
     25 N          69.1264   91.6350   12.7461 N.3     1  UNL1       -0.3175
     26 H          69.1887   90.6183   12.7998 H       1  UNL1        0.1192
     27 H          70.0253   92.0446   13.0003 H       1  UNL1        0.1192
@<TRIPOS>BOND
     1     9    10    1
     2    10    11   ar
     3    11    12   ar
     4    12    13   ar
     5    13     1    1
     6     1     2   ar
     7     2     3   ar
     8     3     4   ar
     9     4     5   ar
    10     5    16    1
    11    16    18    1
    12    18    19   ar
    13    19    20   ar
    14    20    21   ar
    15    21    24    1
    16    24    25    1
    17    21    22   ar
    18    22    23   ar
    19     5     6   ar
    20     6     7    1
    21    13    14   ar
    22    14    15   ar
    23    15    10   ar
    24     6     1   ar
    25    23    18   ar
    26    16    17    1
    27    25    26    1
    28    25    27    1
    29     7     8    1
@<TRIPOS>MOLECULE
*****
 27 29 0 0 0
SMALL
GASTEIGER

@<TRIPOS>ATOM
      1 C          61.9921   87.5267   10.4394 C.ar    1  UNL1        0.1194
      2 N          61.1515   88.0511    9.3133 N.ar    1  UNL1       -0.2208
      3 C          60.6939   89.4796    9.3211 C.ar    1  UNL1        0.2002
      4 N          61.0769   90.3836   10.4552 N.ar    1  UNL1       -0.2058
      5 C          61.9175   89.8591   11.5813 C.ar    1  UNL1        0.1695
      6 C          62.3751   88.4307   11.5734 C.ar    1  UNL1        0.1834
      7 O          63.2158   87.9062   12.6997 O.3     1  UNL1       -0.5020
      8 H          63.4550   88.4709   13.4081 H       1  UNL1        0.2924
      9 C          63.8227   81.8128   10.4079 C.3     1  UNL1        0.0310
     10 C          63.3650   83.2413   10.4158 C.ar    1  UNL1       -0.0218
     11 C          63.4710   84.0697    9.1698 C.ar    1  UNL1       -0.0042
     12 C          63.0134   85.4981    9.1777 C.ar    1  UNL1        0.0013
     13 C          62.4498   86.0982   10.4315 C.ar    1  UNL1        0.0208
     14 C          62.3438   85.2698   11.6775 C.ar    1  UNL1        0.0013
     15 C          62.8014   83.8413   11.6696 C.ar    1  UNL1       -0.0042
     16 N          62.3005   90.7631   12.7154 N.pl3   1  UNL1       -0.2954
     17 H          61.6046   91.1410   13.3003 H       1  UNL1        0.1537
     18 C          63.7439   91.0913   12.9584 C.ar    1  UNL1        0.0494
     19 C          64.5339   91.8196   11.9116 C.ar    1  UNL1        0.0144
     20 C          65.9772   92.1477   12.1545 C.ar    1  UNL1       -0.0017
     21 C          66.6306   91.7476   13.4442 C.ar    1  UNL1       -0.0065
     22 C          65.8406   91.0194   14.4908 C.ar    1  UNL1       -0.0017
     23 C          64.3972   90.6913   14.2479 C.ar    1  UNL1        0.0144
     24 C          68.0739   92.0758   13.6871 C.3     1  UNL1        0.0922
     25 N          69.1143   91.6695   12.6857 N.3     1  UNL1       -0.3175
     26 H          69.1740   90.6518   12.6515 H       1  UNL1        0.1192
     27 H          70.0184   92.0541   12.9596 H       1  UNL1        0.1192
@<TRIPOS>BOND
     1     9    10    1
     2    10    11   ar
     3    11    12   ar
     4    12    13   ar
     5    13     1    1
     6     1     2   ar
     7     2     3   ar
     8     3     4   ar
     9     4     5   ar
    10     5    16    1
    11    16    18    1
    12    18    19   ar
    13    19    20   ar
    14    20    21   ar
    15    21    24    1
    16    24    25    1
    17    21    22   ar
    18    22    23   ar
    19     5     6   ar
    20     6     7    1
    21    13    14   ar
    22    14    15   ar
    23    15    10   ar
    24     6     1   ar
    25    23    18   ar
    26    16    17    1
    27    25    26    1
    28    25    27    1
    29     7     8    1
@<TRIPOS>MOLECULE
*****
 27 29 0 0 0
SMALL
GASTEIGER

@<TRIPOS>ATOM
      1 C          66.6216   92.9656   12.6999 C.ar    1  UNL1        0.1194
      2 N          67.8059   92.7581   13.5966 N.ar    1  UNL1       -0.2208
      3 C          67.6698   91.9287   14.8390 C.ar    1  UNL1        0.2002
      4 N          66.3494   91.3067   15.1846 N.ar    1  UNL1       -0.2058
      5 C          65.1650   91.5142   14.2879 C.ar    1  UNL1        0.1695
      6 C          65.3011   92.3436   13.0455 C.ar    1  UNL1        0.1834
      7 O          64.1166   92.5511   12.1488 O.3     1  UNL1       -0.5020
      8 H          63.2918   92.1626   12.3647 H       1  UNL1        0.2924
      9 C          67.1659   96.2834    7.7304 C.3     1  UNL1        0.0310
     10 C          67.0298   95.4539    8.9727 C.ar    1  UNL1       -0.0218
     11 C          67.4642   94.0182    8.9673 C.ar    1  UNL1       -0.0042
     12 C          67.3281   93.1888   10.2097 C.ar    1  UNL1        0.0013
     13 C          66.7577   93.7950   11.4575 C.ar    1  UNL1        0.0208
     14 C          66.3233   95.2307   11.4629 C.ar    1  UNL1        0.0013
     15 C          66.4594   96.0602   10.2205 C.ar    1  UNL1       -0.0042
     16 N          63.8445   90.8922   14.6335 N.pl3   1  UNL1       -0.2954
     17 H          63.0160   91.4176   14.5501 H       1  UNL1        0.1537
     18 C          63.7862   89.4699   15.1062 C.ar    1  UNL1        0.0494
     19 C          63.1490   89.1431   16.4243 C.ar    1  UNL1        0.0144
     20 C          63.0907   87.7207   16.8971 C.ar    1  UNL1       -0.0017
     21 C          63.6697   86.6251   16.0517 C.ar    1  UNL1       -0.0065
     22 C          64.3068   86.9519   14.7337 C.ar    1  UNL1       -0.0017
     23 C          64.3651   88.3743   14.2609 C.ar    1  UNL1        0.0144
     24 C          63.6114   85.2027   16.5244 C.3     1  UNL1        0.0922
     25 N          63.2283   84.1104   15.5704 N.3     1  UNL1       -0.3175
     26 H          62.2574   84.2348   15.2833 H       1  UNL1        0.1192
     27 H          63.3339   83.2056   16.0293 H       1  UNL1        0.1192
@<TRIPOS>BOND
     1     9    10    1
     2    10    11   ar
     3    11    12   ar
     4    12    13   ar
     5    13     1    1
     6     1     2   ar
     7     2     3   ar
     8     3     4   ar
     9     4     5   ar
    10     5    16    1
    11    16    18    1
    12    18    19   ar
    13    19    20   ar
    14    20    21   ar
    15    21    24    1
    16    24    25    1
    17    21    22   ar
    18    22    23   ar
    19     5     6   ar
    20     6     7    1
    21    13    14   ar
    22    14    15   ar
    23    15    10   ar
    24     6     1   ar
    25    23    18   ar
    26    16    17    1
    27    25    26    1
    28    25    27    1
    29     7     8    1
@<TRIPOS>MOLECULE
*****
 27 29 0 0 0
SMALL
GASTEIGER

@<TRIPOS>ATOM
      1 C          63.6459   85.1272   12.9182 C.ar    1  UNL1        0.1194
      2 N          64.4512   85.2037   14.1813 N.ar    1  UNL1       -0.2208
      3 C          64.6233   86.5184   14.8826 C.ar    1  UNL1        0.2002
      4 N          63.9901   87.7567   14.3208 N.ar    1  UNL1       -0.2058
      5 C          63.1848   87.6803   13.0577 C.ar    1  UNL1        0.1695
      6 C          63.0127   86.3655   12.3564 C.ar    1  UNL1        0.1834
      7 O          62.2073   86.2891   11.0932 O.3     1  UNL1       -0.5020
      8 H          61.8117   87.0627   10.7422 H       1  UNL1        0.2924
      9 C          62.9573   79.8683   10.1129 C.3     1  UNL1        0.0310
     10 C          63.1294   81.1831   10.8142 C.ar    1  UNL1       -0.0218
     11 C          62.4456   81.4282   12.1266 C.ar    1  UNL1       -0.0042
     12 C          62.6178   82.7430   12.8279 C.ar    1  UNL1        0.0013
     13 C          63.4737   83.8125   12.2169 C.ar    1  UNL1        0.0208
     14 C          64.1575   83.5673   10.9045 C.ar    1  UNL1        0.0013
     15 C          63.9853   82.2526   10.2032 C.ar    1  UNL1       -0.0042
     16 N          62.5516   88.9186   12.4958 N.pl3   1  UNL1       -0.2954
     17 H          61.5815   88.9434   12.3295 H       1  UNL1        0.1537
     18 C          63.3963   90.1191   12.1873 C.ar    1  UNL1        0.0494
     19 C          64.2777   90.7086   13.2484 C.ar    1  UNL1        0.0144
     20 C          65.1224   91.9092   12.9399 C.ar    1  UNL1       -0.0017
     21 C          65.0858   92.5201   11.5703 C.ar    1  UNL1       -0.0065
     22 C          64.2045   91.9305   10.5094 C.ar    1  UNL1       -0.0017
     23 C          63.3597   90.7300   10.8179 C.ar    1  UNL1        0.0144
     24 C          65.9306   93.7206   11.2619 C.3     1  UNL1        0.0922
     25 N          65.3469   94.8722   10.4981 N.3     1  UNL1       -0.3175
     26 H          65.1233   94.5724    9.5492 H       1  UNL1        0.1192
     27 H          66.0233   95.6348   10.4633 H       1  UNL1        0.1192
@<TRIPOS>BOND
     1     9    10    1
     2    10    11   ar
     3    11    12   ar
     4    12    13   ar
     5    13     1    1
     6     1     2   ar
     7     2     3   ar
     8     3     4   ar
     9     4     5   ar
    10     5    16    1
    11    16    18    1
    12    18    19   ar
    13    19    20   ar
    14    20    21   ar
    15    21    24    1
    16    24    25    1
    17    21    22   ar
    18    22    23   ar
    19     5     6   ar
    20     6     7    1
    21    13    14   ar
    22    14    15   ar
    23    15    10   ar
    24     6     1   ar
    25    23    18   ar
    26    16    17    1
    27    25    26    1
    28    25    27    1
    29     7     8    1
@<TRIPOS>MOLECULE
*****
 27 29 0 0 0
SMALL
GASTEIGER

@<TRIPOS>ATOM
      1 C          65.1475   91.8502   12.2225 C.ar    1  UNL1        0.1194
      2 N          65.8169   91.4579   13.5062 N.ar    1  UNL1       -0.2208
      3 C          65.1201   90.5386   14.4649 C.ar    1  UNL1        0.2002
      4 N          63.7539   90.0115   14.1400 N.ar    1  UNL1       -0.2058
      5 C          63.0845   90.4039   12.8563 C.ar    1  UNL1        0.1695
      6 C          63.7813   91.3232   11.8976 C.ar    1  UNL1        0.1834
      7 O          63.1118   91.7155   10.6138 O.3     1  UNL1       -0.5020
      8 H          62.2584   91.3863   10.4108 H       1  UNL1        0.2924
      9 C          67.9348   95.5276    8.3874 C.3     1  UNL1        0.0310
     10 C          67.2380   94.6083    9.3462 C.ar    1  UNL1       -0.0218
     11 C          66.1178   95.1241   10.2000 C.ar    1  UNL1       -0.0042
     12 C          65.4210   94.2047   11.1588 C.ar    1  UNL1        0.0013
     13 C          65.8444   92.7696   11.2637 C.ar    1  UNL1        0.0208
     14 C          66.9645   92.2538   10.4098 C.ar    1  UNL1        0.0013
     15 C          67.6613   93.1731    9.4511 C.ar    1  UNL1       -0.0042
     16 N          61.7182   89.8768   12.5313 N.pl3   1  UNL1       -0.2954
     17 H          60.9412   90.1612   13.0648 H       1  UNL1        0.1537
     18 C          61.5358   88.9166   11.3935 C.ar    1  UNL1        0.0494
     19 C          60.4626   89.1574   10.3736 C.ar    1  UNL1        0.0144
     20 C          60.2803   88.1971    9.2358 C.ar    1  UNL1       -0.0017
     21 C          61.1712   86.9960    9.1180 C.ar    1  UNL1       -0.0065
     22 C          62.2443   86.7552   10.1379 C.ar    1  UNL1       -0.0017
     23 C          62.4266   87.7155   11.2757 C.ar    1  UNL1        0.0144
     24 C          60.9888   86.0357    7.9802 C.3     1  UNL1        0.0922
     25 N          59.6210   85.7962    7.4127 N.3     1  UNL1       -0.3175
     26 H          59.0364   85.3423    8.1145 H       1  UNL1        0.1192
     27 H          59.6941   85.1960    6.5912 H       1  UNL1        0.1192
@<TRIPOS>BOND
     1     9    10    1
     2    10    11   ar
     3    11    12   ar
     4    12    13   ar
     5    13     1    1
     6     1     2   ar
     7     2     3   ar
     8     3     4   ar
     9     4     5   ar
    10     5    16    1
    11    16    18    1
    12    18    19   ar
    13    19    20   ar
    14    20    21   ar
    15    21    24    1
    16    24    25    1
    17    21    22   ar
    18    22    23   ar
    19     5     6   ar
    20     6     7    1
    21    13    14   ar
    22    14    15   ar
    23    15    10   ar
    24     6     1   ar
    25    23    18   ar
    26    16    17    1
    27    25    26    1
    28    25    27    1
    29     7     8    1
@<TRIPOS>MOLECULE
*****
 27 29 0 0 0
SMALL
GASTEIGER

@<TRIPOS>ATOM
      1 C          63.8207   90.8525   12.0479 C.ar    1  UNL1        0.1194
      2 N          63.5601   91.5926   10.7695 N.ar    1  UNL1       -0.2208
      3 C          62.6015   91.0326    9.7608 C.ar    1  UNL1        0.2002
      4 N          61.9035   89.7326   10.0305 N.ar    1  UNL1       -0.2058
      5 C          62.1641   88.9926   11.3089 C.ar    1  UNL1        0.1695
      6 C          63.1227   89.5526   12.3176 C.ar    1  UNL1        0.1834
      7 O          63.3833   88.8125   13.5961 O.3     1  UNL1       -0.5020
      8 H          62.9473   88.0004   13.7646 H       1  UNL1        0.2924
      9 C          67.6552   93.0923   16.0827 C.3     1  UNL1        0.0310
     10 C          66.6966   92.5324   15.0740 C.ar    1  UNL1       -0.0218
     11 C          66.9562   92.7189   13.6085 C.ar    1  UNL1       -0.0042
     12 C          65.9975   92.1590   12.5998 C.ar    1  UNL1        0.0013
     13 C          64.7794   91.4125   13.0566 C.ar    1  UNL1        0.0208
     14 C          64.5198   91.2260   14.5222 C.ar    1  UNL1        0.0013
     15 C          65.4784   91.7859   15.5309 C.ar    1  UNL1       -0.0042
     16 N          61.4661   87.6925   11.5787 N.pl3   1  UNL1       -0.2954
     17 H          60.5701   87.6903   11.9868 H       1  UNL1        0.1537
     18 C          62.1331   86.3960   11.2267 C.ar    1  UNL1        0.0494
     19 C          62.5293   85.4378   12.3108 C.ar    1  UNL1        0.0144
     20 C          63.1964   84.1413   11.9588 C.ar    1  UNL1       -0.0017
     21 C          63.4673   83.8028   10.5227 C.ar    1  UNL1       -0.0065
     22 C          63.0712   84.7610    9.4388 C.ar    1  UNL1       -0.0017
     23 C          62.4041   86.0575    9.7908 C.ar    1  UNL1        0.0144
     24 C          64.1344   82.5063   10.1708 C.3     1  UNL1        0.0922
     25 N          63.4322   81.2066   10.4312 N.3     1  UNL1       -0.3175
     26 H          63.3227   81.0748   11.4367 H       1  UNL1        0.1192
     27 H          63.9828   80.4394   10.0456 H       1  UNL1        0.1192
@<TRIPOS>BOND
     1     9    10    1
     2    10    11   ar
     3    11    12   ar
     4    12    13   ar
     5    13     1    1
     6     1     2   ar
     7     2     3   ar
     8     3     4   ar
     9     4     5   ar
    10     5    16    1
    11    16    18    1
    12    18    19   ar
    13    19    20   ar
    14    20    21   ar
    15    21    24    1
    16    24    25    1
    17    21    22   ar
    18    22    23   ar
    19     5     6   ar
    20     6     7    1
    21    13    14   ar
    22    14    15   ar
    23    15    10   ar
    24     6     1   ar
    25    23    18   ar
    26    16    17    1
    27    25    26    1
    28    25    27    1
    29     7     8    1
@<TRIPOS>MOLECULE
*****
 27 29 0 0 0
SMALL
GASTEIGER

@<TRIPOS>ATOM
      1 C          63.2170   89.5537   12.2753 C.ar    1  UNL1        0.1194
      2 N          63.4602   88.5542   13.3669 N.ar    1  UNL1       -0.2208
      3 C          64.4103   88.8773   14.4817 C.ar    1  UNL1        0.2002
      4 N          65.1173   90.2000   14.5049 N.ar    1  UNL1       -0.2058
      5 C          64.8742   91.1995   13.4132 C.ar    1  UNL1        0.1695
      6 C          63.9241   90.8764   12.2984 C.ar    1  UNL1        0.1834
      7 O          63.6810   91.8760   11.2067 O.3     1  UNL1       -0.5020
      8 H          64.1227   92.7023   11.2212 H       1  UNL1        0.2924
      9 C          59.4165   88.2612    7.8160 C.3     1  UNL1        0.0310
     10 C          60.3666   88.5843    8.9308 C.ar    1  UNL1       -0.0218
     11 C          60.1927   89.8466    9.7223 C.ar    1  UNL1       -0.0042
     12 C          61.1429   90.1697   10.8371 C.ar    1  UNL1        0.0013
     13 C          62.2669   89.2306   11.1605 C.ar    1  UNL1        0.0208
     14 C          62.4408   87.9683   10.3690 C.ar    1  UNL1        0.0013
     15 C          61.4906   87.6452    9.2542 C.ar    1  UNL1       -0.0042
     16 N          65.5813   92.5223   13.4364 N.pl3   1  UNL1       -0.2954
     17 H          65.6758   93.0152   14.2833 H       1  UNL1        0.1537
     18 C          66.1443   93.0940   12.1690 C.ar    1  UNL1        0.0494
     19 C          65.8640   94.5208   11.8004 C.ar    1  UNL1        0.0144
     20 C          66.4270   95.0925   10.5331 C.ar    1  UNL1       -0.0017
     21 C          67.2703   94.2373    9.6343 C.ar    1  UNL1       -0.0065
     22 C          67.5506   92.8106   10.0029 C.ar    1  UNL1       -0.0017
     23 C          66.9876   92.2389   11.2703 C.ar    1  UNL1        0.0144
     24 C          67.8334   94.8090    8.3670 C.3     1  UNL1        0.0922
     25 N          67.9377   96.2957    8.1962 N.3     1  UNL1       -0.3175
     26 H          67.0021   96.7009    8.1654 H       1  UNL1        0.1192
     27 H          68.4274   96.5045    7.3262 H       1  UNL1        0.1192
@<TRIPOS>BOND
     1     9    10    1
     2    10    11   ar
     3    11    12   ar
     4    12    13   ar
     5    13     1    1
     6     1     2   ar
     7     2     3   ar
     8     3     4   ar
     9     4     5   ar
    10     5    16    1
    11    16    18    1
    12    18    19   ar
    13    19    20   ar
    14    20    21   ar
    15    21    24    1
    16    24    25    1
    17    21    22   ar
    18    22    23   ar
    19     5     6   ar
    20     6     7    1
    21    13    14   ar
    22    14    15   ar
    23    15    10   ar
    24     6     1   ar
    25    23    18   ar
    26    16    17    1
    27    25    26    1
    28    25    27    1
    29     7     8    1
@<TRIPOS>MOLECULE
*****
 27 29 0 0 0
SMALL
GASTEIGER

@<TRIPOS>ATOM
      1 C          60.9777   88.4255   10.0104 C.ar    1  UNL1        0.1194
      2 N          59.9426   89.4659    9.7007 N.ar    1  UNL1       -0.2208
      3 C          59.6970   90.5895   10.6637 C.ar    1  UNL1        0.2002
      4 N          60.4865   90.6725   11.9363 N.ar    1  UNL1       -0.2058
      5 C          61.5216   89.6321   12.2460 C.ar    1  UNL1        0.1695
      6 C          61.7672   88.5085   11.2830 C.ar    1  UNL1        0.1834
      7 O          62.8024   87.4680   11.5928 O.3     1  UNL1       -0.5020
      8 H          63.2956   87.5199   12.3878 H       1  UNL1        0.2924
      9 C          61.9602   83.9313    6.1584 C.3     1  UNL1        0.0310
     10 C          61.7146   85.0549    7.1214 C.ar    1  UNL1       -0.0218
     11 C          62.8049   85.4972    8.0516 C.ar    1  UNL1       -0.0042
     12 C          62.5593   86.6207    9.0146 C.ar    1  UNL1        0.0013
     13 C          61.2233   87.3019    9.0474 C.ar    1  UNL1        0.0208
     14 C          60.1330   86.8596    8.1171 C.ar    1  UNL1        0.0013
     15 C          60.3786   85.7360    7.1541 C.ar    1  UNL1       -0.0042
     16 N          62.3112   89.7151   13.5187 N.pl3   1  UNL1       -0.2954
     17 H          61.9781   89.2754   14.3342 H       1  UNL1        0.1537
     18 C          63.6081   90.4681   13.5489 C.ar    1  UNL1        0.0494
     19 C          63.9707   91.3830   12.4169 C.ar    1  UNL1        0.0144
     20 C          65.2677   92.1360   12.4471 C.ar    1  UNL1       -0.0017
     21 C          66.2021   91.9740   13.6093 C.ar    1  UNL1       -0.0065
     22 C          65.8395   91.0591   14.7413 C.ar    1  UNL1       -0.0017
     23 C          64.5425   90.3062   14.7111 C.ar    1  UNL1        0.0144
     24 C          67.4990   92.7270   13.6395 C.3     1  UNL1        0.0922
     25 N          68.7587   92.0342   14.0679 N.3     1  UNL1       -0.3175
     26 H          68.6875   91.7773   15.0525 H       1  UNL1        0.1192
     27 H          69.5528   92.6607   13.9366 H       1  UNL1        0.1192
@<TRIPOS>BOND
     1     9    10    1
     2    10    11   ar
     3    11    12   ar
     4    12    13   ar
     5    13     1    1
     6     1     2   ar
     7     2     3   ar
     8     3     4   ar
     9     4     5   ar
    10     5    16    1
    11    16    18    1
    12    18    19   ar
    13    19    20   ar
    14    20    21   ar
    15    21    24    1
    16    24    25    1
    17    21    22   ar
    18    22    23   ar
    19     5     6   ar
    20     6     7    1
    21    13    14   ar
    22    14    15   ar
    23    15    10   ar
    24     6     1   ar
    25    23    18   ar
    26    16    17    1
    27    25    26    1
    28    25    27    1
    29     7     8    1
