@<TRIPOS>MOLECULE
*****
 28 31 0 0 0
SMALL
GASTEIGER

@<TRIPOS>ATOM
      1 C          62.9028   90.9331   12.1884 C.ar    1  UNL1        0.2212
      2 N          64.1600   91.5206   11.6188 N.ar    1  UNL1       -0.1948
      3 C          65.3472   91.7542   12.5053 C.ar    1  UNL1        0.1667
      4 C          65.2774   91.4002   13.9612 C.ar    1  UNL1        0.1117
      5 C          66.5980   91.7417   14.5852 C.ar    1  UNL1        0.0968
      6 N          67.4840   92.3067   13.5149 N.ar    1  UNL1       -0.2924
      7 N          66.7111   92.3144   12.2294 N.ar    1  UNL1       -0.2587
      8 C          64.0202   90.8126   14.5308 C.ar    1  UNL1        0.2860
      9 O          63.9503   90.4586   15.9868 O.2     1  UNL1       -0.2650
     10 N          62.8329   90.5791   13.6442 N.ar    1  UNL1       -0.1749
     11 H          68.4103   92.6178   13.6350 H       1  UNL1        0.1871
     12 C          67.2137   92.7976   10.9013 C.3     1  UNL1        0.1046
     13 C          66.8435   94.0898   10.2355 C.3     1  UNL1        0.0243
     14 C          67.5758   94.1641    8.9285 C.3     1  UNL1        0.0021
     15 C          68.3985   92.9180    8.7865 C.3     1  UNL1        0.0021
     16 C          68.1747   92.0734   10.0057 C.3     1  UNL1        0.0243
     17 N          61.7155   90.6995   11.3018 N.pl3   1  UNL1       -0.2968
     18 H          61.4989   91.3435   10.5894 H       1  UNL1        0.1500
     19 C          59.5351   89.6064   12.1967 C.3     1  UNL1        0.0312
     20 C          60.8584   89.4848   11.5009 C.3     1  UNL1        0.1490
     21 C          61.3244   88.1483   11.0041 C.2     1  UNL1        0.2436
     22 O          62.3284   87.3628   11.7946 O.2     1  UNL1       -0.2731
     23 N          60.7866   87.5974    9.7168 N.am    1  UNL1       -0.2753
     24 C          59.7838   88.2647    8.8229 C.3     1  UNL1        0.0964
     25 C          59.5345   87.3622    7.6510 C.3     1  UNL1        0.0585
     26 C          60.3832   86.1371    7.8206 C.3     1  UNL1        0.1824
     27 F          60.4469   84.9713    6.8788 F       1  UNL1       -0.2354
     28 C          61.1570   86.2825    9.0973 C.3     1  UNL1        0.1286
@<TRIPOS>BOND
     1    20    19    1
     2    20    17    1
     3    17     1    1
     4     1     2   ar
     5     2     3   ar
     6     3     4    1
     7     4     5   ar
     8     5     6   ar
     9     6     7   ar
    10     7    12    1
    11    12    13    1
    12    13    14    1
    13    14    15    1
    14    15    16    1
    15     4     8   ar
    16     8     9    2
    17     8    10   ar
    18    20    21    1
    19    21    22    2
    20    21    23   am
    21    23    24    1
    22    24    25    1
    23    25    26    1
    24    26    27    1
    25    26    28    1
    26    10     1   ar
    27    28    23    1
    28     7     3   ar
    29    16    12    1
    30    17    18    1
    31     6    11    1
@<TRIPOS>MOLECULE
*****
 28 31 0 0 0
SMALL
GASTEIGER

@<TRIPOS>ATOM
      1 C          64.1282   87.5422   14.8528 C.ar    1  UNL1        0.2212
      2 N          64.0095   86.4077   13.8788 N.ar    1  UNL1       -0.1948
      3 C          63.3341   85.1333   14.2906 C.ar    1  UNL1        0.1667
      4 C          62.7774   84.9933   15.6764 C.ar    1  UNL1        0.1117
      5 C          62.1694   83.6273   15.7960 C.ar    1  UNL1        0.0968
      6 N          62.3503   82.9230   14.4841 N.ar    1  UNL1       -0.2924
      7 N          63.0701   83.8537   13.5536 N.ar    1  UNL1       -0.2587
      8 C          62.8961   86.1278   16.6504 C.ar    1  UNL1        0.2860
      9 O          62.3394   85.9880   18.0363 O.2     1  UNL1       -0.2650
     10 N          63.5715   87.4023   16.2386 N.ar    1  UNL1       -0.1749
     11 H          62.0494   82.0102   14.2710 H       1  UNL1        0.1871
     12 C          63.4579   83.5570   12.1354 C.3     1  UNL1        0.1046
     13 C          63.0262   84.3283   10.9234 C.3     1  UNL1        0.0243
     14 C          63.6469   83.6847    9.7191 C.3     1  UNL1        0.0021
     15 C          64.4623   82.5157   10.1866 C.3     1  UNL1        0.0021
     16 C          64.3455   82.4368   11.6799 C.3     1  UNL1        0.0243
     17 N          64.8036   88.8168   14.4409 N.pl3   1  UNL1       -0.2968
     18 H          65.7425   88.8030   14.1453 H       1  UNL1        0.1500
     19 C          62.8630   90.3162   13.5832 C.3     1  UNL1        0.0312
     20 C          64.0483   90.1121   14.4795 C.3     1  UNL1        0.1490
     21 C          64.4782   91.2035   15.4145 C.2     1  UNL1        0.2436
     22 O          63.5508   91.6733   16.4957 O.2     1  UNL1       -0.2731
     23 N          65.8355   91.8251   15.2683 N.am    1  UNL1       -0.2753
     24 C          66.8657   91.4612   14.2406 C.3     1  UNL1        0.0964
     25 C          68.0678   92.3308   14.4612 C.3     1  UNL1        0.0585
     26 C          67.7806   93.2321   15.6252 C.3     1  UNL1        0.1824
     27 F          68.7098   94.2648   16.1911 F       1  UNL1       -0.2354
     28 C          66.4009   92.9196   16.1241 C.3     1  UNL1        0.1286
@<TRIPOS>BOND
     1    20    19    1
     2    20    17    1
     3    17     1    1
     4     1     2   ar
     5     2     3   ar
     6     3     4    1
     7     4     5   ar
     8     5     6   ar
     9     6     7   ar
    10     7    12    1
    11    12    13    1
    12    13    14    1
    13    14    15    1
    14    15    16    1
    15     4     8   ar
    16     8     9    2
    17     8    10   ar
    18    20    21    1
    19    21    22    2
    20    21    23   am
    21    23    24    1
    22    24    25    1
    23    25    26    1
    24    26    27    1
    25    26    28    1
    26    10     1   ar
    27    28    23    1
    28     7     3   ar
    29    16    12    1
    30    17    18    1
    31     6    11    1
@<TRIPOS>MOLECULE
*****
 28 31 0 0 0
SMALL
GASTEIGER

@<TRIPOS>ATOM
      1 C          63.1195   89.5874   12.3495 C.ar    1  UNL1        0.2212
      2 N          63.1595   88.1399   11.9582 N.ar    1  UNL1       -0.1948
      3 C          62.0716   87.5645   11.1007 C.ar    1  UNL1        0.1667
      4 C          60.9436   88.4365   10.6346 C.ar    1  UNL1        0.1117
      5 C          60.0196   87.5952    9.8049 C.ar    1  UNL1        0.0968
      6 N          60.5766   86.2033    9.7582 N.ar    1  UNL1       -0.2924
      7 N          61.8447   86.1842   10.5590 N.ar    1  UNL1       -0.2587
      8 C          60.9036   89.8840   11.0260 C.ar    1  UNL1        0.2860
      9 O          59.7757   90.7561   10.5599 O.2     1  UNL1       -0.2650
     10 N          61.9916   90.4594   11.8835 N.ar    1  UNL1       -0.1749
     11 H          60.1795   85.4367    9.2849 H       1  UNL1        0.1871
     12 C          62.7305   84.9939   10.7795 C.3     1  UNL1        0.1046
     13 C          63.4432   84.2157    9.7135 C.3     1  UNL1        0.0243
     14 C          64.2122   83.1137   10.3799 C.3     1  UNL1        0.0021
     15 C          63.9748   83.2107   11.8578 C.3     1  UNL1        0.0021
     16 C          63.0590   84.3728   12.1047 C.3     1  UNL1        0.0243
     17 N          64.2075   90.1628   13.2070 N.pl3   1  UNL1       -0.2968
     18 H          64.9888   90.5919   12.7890 H       1  UNL1        0.1500
     19 C          63.5873   88.8365   15.3532 C.3     1  UNL1        0.0312
     20 C          64.1052   90.0843   14.7015 C.3     1  UNL1        0.1490
     21 C          64.5206   91.2535   15.5443 C.2     1  UNL1        0.2436
     22 O          63.5678   91.8298   16.5492 O.2     1  UNL1       -0.2731
     23 N          65.8889   91.8465   15.3821 N.am    1  UNL1       -0.2753
     24 C          66.9441   91.3797   14.4237 C.3     1  UNL1        0.0964
     25 C          68.1495   92.2551   14.5991 C.3     1  UNL1        0.0585
     26 C          67.8393   93.2629   15.6659 C.3     1  UNL1        0.1824
     27 F          68.7638   94.3349   16.1617 F       1  UNL1       -0.2354
     28 C          66.4421   93.0104   16.1498 C.3     1  UNL1        0.1286
@<TRIPOS>BOND
     1    20    19    1
     2    20    17    1
     3    17     1    1
     4     1     2   ar
     5     2     3   ar
     6     3     4    1
     7     4     5   ar
     8     5     6   ar
     9     6     7   ar
    10     7    12    1
    11    12    13    1
    12    13    14    1
    13    14    15    1
    14    15    16    1
    15     4     8   ar
    16     8     9    2
    17     8    10   ar
    18    20    21    1
    19    21    22    2
    20    21    23   am
    21    23    24    1
    22    24    25    1
    23    25    26    1
    24    26    27    1
    25    26    28    1
    26    10     1   ar
    27    28    23    1
    28     7     3   ar
    29    16    12    1
    30    17    18    1
    31     6    11    1
@<TRIPOS>MOLECULE
*****
 28 31 0 0 0
SMALL
GASTEIGER

@<TRIPOS>ATOM
      1 C          63.6151   87.0856   14.0632 C.ar    1  UNL1        0.2212
      2 N          63.0276   87.0527   12.6835 N.ar    1  UNL1       -0.1948
      3 C          62.9540   88.3105   11.8695 C.ar    1  UNL1        0.1667
      4 C          63.4679   89.6011   12.4353 C.ar    1  UNL1        0.1117
      5 C          63.2637   90.6726   11.4056 C.ar    1  UNL1        0.0968
      6 N          62.6236   90.0441   10.2034 N.ar    1  UNL1       -0.2924
      7 N          62.4322   88.5843   10.4901 N.ar    1  UNL1       -0.2587
      8 C          64.0554   89.6340   13.8151 C.ar    1  UNL1        0.2860
      9 O          64.5693   90.9246   14.3809 O.2     1  UNL1       -0.2650
     10 N          64.1289   88.3761   14.6290 N.ar    1  UNL1       -0.1749
     11 H          62.3731   90.5083    9.3721 H       1  UNL1        0.1871
     12 C          61.8255   87.5754    9.5606 C.3     1  UNL1        0.1046
     13 C          60.4266   87.6039    9.0198 C.3     1  UNL1        0.0243
     14 C          60.2477   86.4069    8.1337 C.3     1  UNL1        0.0021
     15 C          61.5360   85.6387    8.1266 C.3     1  UNL1        0.0021
     16 C          62.5111   86.3608    9.0085 C.3     1  UNL1        0.0243
     17 N          63.6886   85.8277   14.8772 N.pl3   1  UNL1       -0.2968
     18 H          63.1490   85.7388   15.6958 H       1  UNL1        0.1500
     19 C          66.0636   84.9274   14.3306 C.3     1  UNL1        0.0312
     20 C          64.5845   84.7054   14.4438 C.3     1  UNL1        0.1490
     21 C          64.0012   83.3610   14.1236 C.2     1  UNL1        0.2436
     22 O          63.5272   82.4662   15.2302 O.2     1  UNL1       -0.2731
     23 N          63.8920   82.9113   12.6967 N.am    1  UNL1       -0.2753
     24 C          64.3216   83.6929   11.4907 C.3     1  UNL1        0.0964
     25 C          64.0291   82.8658   10.2740 C.3     1  UNL1        0.0585
     26 C          63.4187   81.5730   10.7281 C.3     1  UNL1        0.1824
     27 F          62.9716   80.4494    9.8406 F       1  UNL1       -0.2354
     28 C          63.3340   81.6012   12.2254 C.3     1  UNL1        0.1286
@<TRIPOS>BOND
     1    20    19    1
     2    20    17    1
     3    17     1    1
     4     1     2   ar
     5     2     3   ar
     6     3     4    1
     7     4     5   ar
     8     5     6   ar
     9     6     7   ar
    10     7    12    1
    11    12    13    1
    12    13    14    1
    13    14    15    1
    14    15    16    1
    15     4     8   ar
    16     8     9    2
    17     8    10   ar
    18    20    21    1
    19    21    22    2
    20    21    23   am
    21    23    24    1
    22    24    25    1
    23    25    26    1
    24    26    27    1
    25    26    28    1
    26    10     1   ar
    27    28    23    1
    28     7     3   ar
    29    16    12    1
    30    17    18    1
    31     6    11    1
@<TRIPOS>MOLECULE
*****
 28 31 0 0 0
SMALL
GASTEIGER

@<TRIPOS>ATOM
      1 C          64.1661   88.6037   13.9544 C.ar    1  UNL1        0.2212
      2 N          63.3429   88.3236   12.7321 N.ar    1  UNL1       -0.1948
      3 C          63.0909   89.4127   11.7320 C.ar    1  UNL1        0.1667
      4 C          63.6619   90.7819   11.9541 C.ar    1  UNL1        0.1117
      5 C          63.2480   91.6492   10.8024 C.ar    1  UNL1        0.0968
      6 N          62.4211   90.8161    9.8685 N.ar    1  UNL1       -0.2924
      7 N          62.3240   89.4339   10.4430 N.ar    1  UNL1       -0.2587
      8 C          64.4851   91.0619   13.1763 C.ar    1  UNL1        0.2860
      9 O          65.0562   92.4311   13.3985 O.2     1  UNL1       -0.2650
     10 N          64.7372   89.9728   14.1765 N.ar    1  UNL1       -0.1749
     11 H          62.0137   91.1227    9.0264 H       1  UNL1        0.1871
     12 C          61.5890   88.2762    9.8352 C.3     1  UNL1        0.1046
     13 C          62.0767   86.8592    9.7685 C.3     1  UNL1        0.0243
     14 C          61.0263   86.0395    9.0795 C.3     1  UNL1        0.0021
     15 C          59.8895   86.9497    8.7204 C.3     1  UNL1        0.0021
     16 C          60.2372   88.3321    9.1875 C.3     1  UNL1        0.0243
     17 N          64.4182   87.5145   14.9546 N.pl3   1  UNL1       -0.2968
     18 H          65.2144   86.9419   14.8687 H       1  UNL1        0.1500
     19 C          63.0792   88.4425   16.9784 C.3     1  UNL1        0.0312
     20 C          63.4570   87.2979   16.0856 C.3     1  UNL1        0.1490
     21 C          62.8736   85.9366   16.3239 C.2     1  UNL1        0.2436
     22 O          61.9993   85.6940   17.5183 O.2     1  UNL1       -0.2731
     23 N          63.1645   84.8180   15.3678 N.am    1  UNL1       -0.2753
     24 C          64.0164   84.9097   14.1366 C.3     1  UNL1        0.0964
     25 C          64.0331   83.5597   13.4830 C.3     1  UNL1        0.0585
     26 C          63.1915   82.6337   14.3101 C.3     1  UNL1        0.1824
     27 F          62.9322   81.1845   14.0229 F       1  UNL1       -0.2354
     28 C          62.6547   83.4114   15.4751 C.3     1  UNL1        0.1286
@<TRIPOS>BOND
     1    20    19    1
     2    20    17    1
     3    17     1    1
     4     1     2   ar
     5     2     3   ar
     6     3     4    1
     7     4     5   ar
     8     5     6   ar
     9     6     7   ar
    10     7    12    1
    11    12    13    1
    12    13    14    1
    13    14    15    1
    14    15    16    1
    15     4     8   ar
    16     8     9    2
    17     8    10   ar
    18    20    21    1
    19    21    22    2
    20    21    23   am
    21    23    24    1
    22    24    25    1
    23    25    26    1
    24    26    27    1
    25    26    28    1
    26    10     1   ar
    27    28    23    1
    28     7     3   ar
    29    16    12    1
    30    17    18    1
    31     6    11    1
@<TRIPOS>MOLECULE
*****
 28 31 0 0 0
SMALL
GASTEIGER

@<TRIPOS>ATOM
      1 C          62.7517   87.6206   11.7630 C.ar    1  UNL1        0.2212
      2 N          62.7640   86.1756   12.1652 N.ar    1  UNL1       -0.1948
      3 C          63.4277   85.7587   13.4441 C.ar    1  UNL1        0.1667
      4 C          64.0791   86.7869   14.3209 C.ar    1  UNL1        0.1117
      5 C          64.6515   86.0823   15.5149 C.ar    1  UNL1        0.0968
      6 N          64.3540   84.6187   15.3761 N.ar    1  UNL1       -0.2924
      7 N          63.5976   84.4187   14.0963 N.ar    1  UNL1       -0.2587
      8 C          64.0668   88.2319   13.9187 C.ar    1  UNL1        0.2860
      9 O          64.7181   89.2601   14.7954 O.2     1  UNL1       -0.2650
     10 N          63.4030   88.6487   12.6397 N.ar    1  UNL1       -0.1749
     11 H          64.6101   83.9131   16.0132 H       1  UNL1        0.1871
     12 C          63.0987   83.1087   13.5625 C.3     1  UNL1        0.1046
     13 C          62.2572   82.1157   14.3081 C.3     1  UNL1        0.0243
     14 C          61.9922   80.9550   13.3956 C.3     1  UNL1        0.0021
     15 C          62.6699   81.2306   12.0862 C.3     1  UNL1        0.0021
     16 C          63.3538   82.5616   12.1893 C.3     1  UNL1        0.0243
     17 N          62.0880   88.0375   10.4840 N.pl3   1  UNL1       -0.2968
     18 H          62.6217   88.4384    9.7603 H       1  UNL1        0.1500
     19 C          59.6606   88.3182   11.3665 C.3     1  UNL1        0.0312
     20 C          60.6111   87.8435   10.3076 C.3     1  UNL1        0.1490
     21 C          60.0845   87.1747    9.0725 C.2     1  UNL1        0.2436
     22 O          58.6789   87.4366    8.6191 O.2     1  UNL1       -0.2731
     23 N          60.9636   86.2442    8.2906 N.am    1  UNL1       -0.2753
     24 C          62.3829   85.8872    8.6198 C.3     1  UNL1        0.0964
     25 C          62.8742   84.9297    7.5750 C.3     1  UNL1        0.0585
     26 C          61.7587   84.6947    6.6002 C.3     1  UNL1        0.1824
     27 F          61.8142   83.8038    5.3947 F       1  UNL1       -0.2354
     28 C          60.5778   85.5072    7.0425 C.3     1  UNL1        0.1286
@<TRIPOS>BOND
     1    20    19    1
     2    20    17    1
     3    17     1    1
     4     1     2   ar
     5     2     3   ar
     6     3     4    1
     7     4     5   ar
     8     5     6   ar
     9     6     7   ar
    10     7    12    1
    11    12    13    1
    12    13    14    1
    13    14    15    1
    14    15    16    1
    15     4     8   ar
    16     8     9    2
    17     8    10   ar
    18    20    21    1
    19    21    22    2
    20    21    23   am
    21    23    24    1
    22    24    25    1
    23    25    26    1
    24    26    27    1
    25    26    28    1
    26    10     1   ar
    27    28    23    1
    28     7     3   ar
    29    16    12    1
    30    17    18    1
    31     6    11    1
@<TRIPOS>MOLECULE
*****
 28 31 0 0 0
SMALL
GASTEIGER

@<TRIPOS>ATOM
      1 C          62.2373   90.6883   11.1506 C.ar    1  UNL1        0.2212
      2 N          63.5454   91.3756   10.8927 N.ar    1  UNL1       -0.1948
      3 C          64.5579   91.4980   11.9926 C.ar    1  UNL1        0.1667
      4 C          64.2625   90.9330   13.3503 C.ar    1  UNL1        0.1117
      5 C          65.4454   91.2030   14.2322 C.ar    1  UNL1        0.0968
      6 N          66.4719   91.9348   13.4195 N.ar    1  UNL1       -0.2924
      7 N          65.9235   92.1172   12.0353 N.ar    1  UNL1       -0.2587
      8 C          62.9544   90.2456   13.6082 C.ar    1  UNL1        0.2860
      9 O          62.6589   89.6806   14.9659 O.2     1  UNL1       -0.2650
     10 N          61.9418   90.1233   12.5082 N.ar    1  UNL1       -0.1749
     11 H          67.3513   92.2417   13.7386 H       1  UNL1        0.1871
     12 C          66.6186   92.7990   10.8943 C.3     1  UNL1        0.1046
     13 C          67.7107   92.2123   10.0499 C.3     1  UNL1        0.0243
     14 C          68.1107   93.2380    9.0311 C.3     1  UNL1        0.0021
     15 C          67.2657   94.4586    9.2458 C.3     1  UNL1        0.0021
     16 C          66.3436   94.1873   10.3973 C.3     1  UNL1        0.0243
     17 N          61.2247   90.5660   10.0506 N.pl3   1  UNL1       -0.2968
     18 H          60.9398   91.3660    9.5526 H       1  UNL1        0.1500
     19 C          60.0252   88.9961    8.3635 C.3     1  UNL1        0.0312
     20 C          60.6463   89.2247    9.7096 C.3     1  UNL1        0.1490
     21 C          60.6890   88.1119   10.7145 C.2     1  UNL1        0.2436
     22 O          59.9164   88.2277   11.9950 O.2     1  UNL1       -0.2731
     23 N          61.5042   86.8833   10.4391 N.am    1  UNL1       -0.2753
     24 C          62.3244   86.6268    9.2096 C.3     1  UNL1        0.0964
     25 C          62.9695   85.2805    9.3554 C.3     1  UNL1        0.0585
     26 C          62.5481   84.7049   10.6748 C.3     1  UNL1        0.1824
     27 F          62.9599   83.3726   11.2275 F       1  UNL1       -0.2354
     28 C          61.6425   85.6955   11.3446 C.3     1  UNL1        0.1286
@<TRIPOS>BOND
     1    20    19    1
     2    20    17    1
     3    17     1    1
     4     1     2   ar
     5     2     3   ar
     6     3     4    1
     7     4     5   ar
     8     5     6   ar
     9     6     7   ar
    10     7    12    1
    11    12    13    1
    12    13    14    1
    13    14    15    1
    14    15    16    1
    15     4     8   ar
    16     8     9    2
    17     8    10   ar
    18    20    21    1
    19    21    22    2
    20    21    23   am
    21    23    24    1
    22    24    25    1
    23    25    26    1
    24    26    27    1
    25    26    28    1
    26    10     1   ar
    27    28    23    1
    28     7     3   ar
    29    16    12    1
    30    17    18    1
    31     6    11    1
@<TRIPOS>MOLECULE
*****
 28 31 0 0 0
SMALL
GASTEIGER

@<TRIPOS>ATOM
      1 C          62.6746   84.4694   13.2147 C.ar    1  UNL1        0.2212
      2 N          62.3217   85.6669   12.3832 N.ar    1  UNL1       -0.1948
      3 C          62.5007   85.6253   10.8945 C.ar    1  UNL1        0.1667
      4 C          63.0327   84.3863   10.2374 C.ar    1  UNL1        0.1117
      5 C          63.1016   84.6381    8.7603 C.ar    1  UNL1        0.0968
      6 N          62.6122   86.0328    8.5045 N.ar    1  UNL1       -0.2924
      7 N          62.2408   86.6429    9.8236 N.ar    1  UNL1       -0.2587
      8 C          63.3857   83.1888   11.0689 C.ar    1  UNL1        0.2860
      9 O          63.9177   81.9498   10.4118 O.2     1  UNL1       -0.2650
     10 N          63.2066   83.2304   12.5576 N.ar    1  UNL1       -0.1749
     11 H          62.5463   86.4708    7.6253 H       1  UNL1        0.1871
     12 C          61.7038   88.0275   10.0346 C.3     1  UNL1        0.1046
     13 C          62.5050   89.2338   10.4259 C.3     1  UNL1        0.0243
     14 C          61.5677   90.4007   10.5245 C.3     1  UNL1        0.0021
     15 C          60.1872   89.9157   10.1940 C.3     1  UNL1        0.0021
     16 C          60.2714   88.4490    9.8912 C.3     1  UNL1        0.0243
     17 N          62.4956   84.5110   14.7035 N.pl3   1  UNL1       -0.2968
     18 H          61.6934   84.1145   15.1141 H       1  UNL1        0.1500
     19 C          64.9500   84.6488   15.5442 C.3     1  UNL1        0.0312
     20 C          63.5388   85.1567   15.5665 C.3     1  UNL1        0.1490
     21 C          63.1708   86.3102   16.4520 C.2     1  UNL1        0.2436
     22 O          62.4827   86.0609   17.7613 O.2     1  UNL1       -0.2731
     23 N          63.4908   87.7131   16.0281 N.am    1  UNL1       -0.2753
     24 C          64.1722   88.1153   14.7537 C.3     1  UNL1        0.0964
     25 C          64.2881   89.6107   14.7422 C.3     1  UNL1        0.0585
     26 C          63.6784   90.1328   16.0093 C.3     1  UNL1        0.1824
     27 F          63.5790   91.5745   16.4111 F       1  UNL1       -0.2354
     28 C          63.1856   88.9599   16.8041 C.3     1  UNL1        0.1286
@<TRIPOS>BOND
     1    20    19    1
     2    20    17    1
     3    17     1    1
     4     1     2   ar
     5     2     3   ar
     6     3     4    1
     7     4     5   ar
     8     5     6   ar
     9     6     7   ar
    10     7    12    1
    11    12    13    1
    12    13    14    1
    13    14    15    1
    14    15    16    1
    15     4     8   ar
    16     8     9    2
    17     8    10   ar
    18    20    21    1
    19    21    22    2
    20    21    23   am
    21    23    24    1
    22    24    25    1
    23    25    26    1
    24    26    27    1
    25    26    28    1
    26    10     1   ar
    27    28    23    1
    28     7     3   ar
    29    16    12    1
    30    17    18    1
    31     6    11    1
@<TRIPOS>MOLECULE
*****
 28 31 0 0 0
SMALL
GASTEIGER

@<TRIPOS>ATOM
      1 C          62.0585   87.6286   10.2845 C.ar    1  UNL1        0.2212
      2 N          62.3739   86.9145   11.5653 N.ar    1  UNL1       -0.1948
      3 C          62.8622   85.4965   11.5327 C.ar    1  UNL1        0.1667
      4 C          63.0350   84.7928   10.2194 C.ar    1  UNL1        0.1117
      5 C          63.5297   83.4046   10.4989 C.ar    1  UNL1        0.0968
      6 N          63.6626   83.2503   11.9850 N.ar    1  UNL1       -0.2924
      7 N          63.2500   84.5432   12.6240 N.ar    1  UNL1       -0.2587
      8 C          62.7196   85.5070    8.9386 C.ar    1  UNL1        0.2860
      9 O          62.8925   84.8033    7.6252 O.2     1  UNL1       -0.2650
     10 N          62.2314   86.9250    8.9712 N.ar    1  UNL1       -0.1749
     11 H          63.9671   82.4424   12.4580 H       1  UNL1        0.1871
     12 C          63.2290   84.8321   14.0957 C.3     1  UNL1        0.1046
     13 C          64.1688   85.7426   14.8291 C.3     1  UNL1        0.0243
     14 C          63.7851   85.7343   16.2791 C.3     1  UNL1        0.0021
     15 C          62.6082   84.8187   16.4420 C.3     1  UNL1        0.0021
     16 C          62.2645   84.2611   15.0926 C.3     1  UNL1        0.0243
     17 N          61.5703   89.0466   10.3171 N.pl3   1  UNL1       -0.2968
     18 H          61.4846   89.5572    9.4797 H       1  UNL1        0.1500
     19 C          59.7721   89.8607   12.0065 C.3     1  UNL1        0.0312
     20 C          61.2125   89.6867   11.6257 C.3     1  UNL1        0.1490
     21 C          62.2951   90.1527   12.5536 C.2     1  UNL1        0.2436
     22 O          62.2631   89.7595   14.0008 O.2     1  UNL1       -0.2731
     23 N          63.4096   91.0118   12.0343 N.am    1  UNL1       -0.2753
     24 C          63.5740   91.4828   10.6197 C.3     1  UNL1        0.0964
     25 C          64.8214   92.3129   10.5496 C.3     1  UNL1        0.0585
     26 C          65.4280   92.3550   11.9208 C.3     1  UNL1        0.1824
     27 F          66.6862   93.0747   12.3066 F       1  UNL1       -0.2354
     28 C          64.5554   91.5508   12.8384 C.3     1  UNL1        0.1286
@<TRIPOS>BOND
     1    20    19    1
     2    20    17    1
     3    17     1    1
     4     1     2   ar
     5     2     3   ar
     6     3     4    1
     7     4     5   ar
     8     5     6   ar
     9     6     7   ar
    10     7    12    1
    11    12    13    1
    12    13    14    1
    13    14    15    1
    14    15    16    1
    15     4     8   ar
    16     8     9    2
    17     8    10   ar
    18    20    21    1
    19    21    22    2
    20    21    23   am
    21    23    24    1
    22    24    25    1
    23    25    26    1
    24    26    27    1
    25    26    28    1
    26    10     1   ar
    27    28    23    1
    28     7     3   ar
    29    16    12    1
    30    17    18    1
    31     6    11    1
