@<TRIPOS>MOLECULE
*****
 27 29 0 0 0
SMALL
GASTEIGER

@<TRIPOS>ATOM
      1 C          62.3823   86.3391   11.0498 C.ar    1  UNL1        0.0191
      2 C          61.8370   87.2796   10.0161 C.ar    1  UNL1        0.0063
      3 C          61.9239   88.7617   10.2304 C.ar    1  UNL1        0.0581
      4 C          62.5560   89.3033   11.4783 C.ar    1  UNL1        0.2297
      5 N          63.1012   88.3629   12.5118 N.ar    1  UNL1       -0.2098
      6 C          63.0143   86.8807   12.2975 C.ar    1  UNL1        0.1020
      7 C          63.1322   83.9290   11.6651 C.2     1  UNL1       -0.0069
      8 C          62.2954   84.8571   10.8354 C.2     1  UNL1       -0.0014
      9 C          63.0453   82.4470   11.4508 C.3     1  UNL1        0.0939
     10 C          64.0442   81.7568   10.5698 C.3     1  UNL1        0.0262
     11 C          60.9423   80.5894   14.2573 C.3     1  UNL1        0.0946
     12 C          62.0279   81.3812   13.5907 C.2     1  UNL1        0.2232
     13 O          63.1817   81.8991   14.3973 O.2     1  UNL1       -0.2751
     14 N          61.9597   81.6551   12.1174 N.am    1  UNL1       -0.3022
     15 H          61.2024   81.3152   11.5881 H       1  UNL1        0.1497
     16 O          62.6429   90.7854   11.6926 O.3     1  UNL1       -0.4352
     17 C          63.9459   91.4097   12.0957 C.ar    1  UNL1        0.1582
     18 C          64.8122   92.0696   11.0643 C.ar    1  UNL1        0.0400
     19 C          66.1152   92.6939   11.4675 C.ar    1  UNL1        0.0228
     20 C          66.5518   92.6583   12.9021 C.ar    1  UNL1        0.0885
     21 N          67.7747   93.1855   13.5924 N.ar    1  UNL1       -0.2427
     22 C          67.6640   92.8515   15.0506 C.ar    1  UNL1        0.0886
     23 C          68.6683   93.1913   16.1116 C.3     1  UNL1        0.0594
     24 S          66.3728   92.1178   15.2614 S.2     1  UNL1       -0.0698
     25 C          65.6853   91.9984   13.9335 C.ar    1  UNL1        0.0617
     26 C          64.3824   91.3741   13.5303 C.ar    1  UNL1        0.0996
     27 CL         63.5160   90.7143   14.5618 Cl      1  UNL1       -0.0785
@<TRIPOS>BOND
     1    11    12    1
     2    12    13    2
     3    12    14   am
     4    14     9    1
     5     9    10    1
     6     9     7    1
     7     7     8    2
     8     8     1    1
     9     1     2   ar
    10     2     3   ar
    11     3     4   ar
    12     4    16    1
    13    16    17    1
    14    17    18   ar
    15    18    19   ar
    16    19    20   ar
    17    20    21   ar
    18    21    22   ar
    19    22    23    1
    20    22    24   ar
    21    24    25   ar
    22    25    26   ar
    23    26    27    1
    24     4     5   ar
    25     5     6   ar
    26     6     1   ar
    27    26    17   ar
    28    25    20   ar
    29    14    15    1
@<TRIPOS>MOLECULE
*****
 27 29 0 0 0
SMALL
GASTEIGER

@<TRIPOS>ATOM
      1 C          62.5860   85.9085   11.4807 C.ar    1  UNL1        0.0191
      2 C          61.9603   86.6624   10.3447 C.ar    1  UNL1        0.0063
      3 C          61.9324   88.1620   10.3650 C.ar    1  UNL1        0.0581
      4 C          62.5301   88.9078   11.5211 C.ar    1  UNL1        0.2297
      5 N          63.1557   88.1539   12.6570 N.ar    1  UNL1       -0.2098
      6 C          63.1837   86.6542   12.6368 C.ar    1  UNL1        0.1020
      7 C          63.7480   83.6711   12.1081 C.2     1  UNL1       -0.0069
      8 C          62.6140   84.4089   11.4604 C.2     1  UNL1       -0.0014
      9 C          63.7760   82.1715   12.0878 C.3     1  UNL1        0.0939
     10 C          64.0332   81.4091   13.3537 C.3     1  UNL1        0.0262
     11 C          62.6898   79.3350    9.5335 C.3     1  UNL1        0.0946
     12 C          62.9191   80.0721   10.8197 C.2     1  UNL1        0.2232
     13 O          62.5207   79.4469   12.1237 O.2     1  UNL1       -0.2751
     14 N          63.5467   81.4345   10.8017 N.am    1  UNL1       -0.3022
     15 H          63.8081   81.8448    9.9458 H       1  UNL1        0.1497
     16 O          62.5022   90.4074   11.5414 O.3     1  UNL1       -0.4352
     17 C          63.7365   91.1755   11.9109 C.ar    1  UNL1        0.1582
     18 C          64.5289   91.8778   10.8485 C.ar    1  UNL1        0.0400
     19 C          65.7633   92.6460   11.2180 C.ar    1  UNL1        0.0228
     20 C          66.2051   92.7117   12.6499 C.ar    1  UNL1        0.0885
     21 N          67.3703   93.3866   13.3108 N.ar    1  UNL1       -0.2427
     22 C          67.2980   93.1014   14.7816 C.ar    1  UNL1        0.0886
     23 C          68.2657   93.5828   15.8217 C.3     1  UNL1        0.0594
     24 S          66.0881   92.2502   15.0298 S.2     1  UNL1       -0.0698
     25 C          65.4126   92.0094   13.7124 C.ar    1  UNL1        0.0617
     26 C          64.1783   91.2413   13.3428 C.ar    1  UNL1        0.0996
     27 CL         63.3858   90.5389   14.4052 Cl      1  UNL1       -0.0785
@<TRIPOS>BOND
     1    11    12    1
     2    12    13    2
     3    12    14   am
     4    14     9    1
     5     9    10    1
     6     9     7    1
     7     7     8    2
     8     8     1    1
     9     1     2   ar
    10     2     3   ar
    11     3     4   ar
    12     4    16    1
    13    16    17    1
    14    17    18   ar
    15    18    19   ar
    16    19    20   ar
    17    20    21   ar
    18    21    22   ar
    19    22    23    1
    20    22    24   ar
    21    24    25   ar
    22    25    26   ar
    23    26    27    1
    24     4     5   ar
    25     5     6   ar
    26     6     1   ar
    27    26    17   ar
    28    25    20   ar
    29    14    15    1
@<TRIPOS>MOLECULE
*****
 27 29 0 0 0
SMALL
GASTEIGER

@<TRIPOS>ATOM
      1 C          63.6411   90.8569   11.8396 C.ar    1  UNL1        0.0191
      2 C          63.1381   90.9281   10.4282 C.ar    1  UNL1        0.0063
      3 C          62.5116   89.7220    9.7936 C.ar    1  UNL1        0.0581
      4 C          62.3881   88.4446   10.5703 C.ar    1  UNL1        0.2297
      5 N          62.8910   88.3735   11.9816 N.ar    1  UNL1       -0.2098
      6 C          63.5175   89.5797   12.6163 C.ar    1  UNL1        0.1020
      7 C          65.5133   92.6576   11.8872 C.2     1  UNL1       -0.0069
      8 C          64.2675   92.0630   12.4743 C.2     1  UNL1       -0.0014
      9 C          66.1397   93.8637   12.5218 C.3     1  UNL1        0.0939
     10 C          66.3982   95.0933   11.7023 C.3     1  UNL1        0.0262
     11 C          68.0039   92.9493   15.9039 C.3     1  UNL1        0.0946
     12 C          67.6359   92.9727   14.4500 C.2     1  UNL1        0.2232
     13 O          68.3960   92.1287   13.4702 O.2     1  UNL1       -0.2751
     14 N          66.5077   93.8403   13.9758 N.am    1  UNL1       -0.3022
     15 H          66.0088   94.3942   14.6188 H       1  UNL1        0.1497
     16 O          61.7616   87.2385    9.9356 O.3     1  UNL1       -0.4352
     17 C          62.3361   85.8756   10.1860 C.ar    1  UNL1        0.1582
     18 C          63.0937   85.1701    9.1007 C.ar    1  UNL1        0.0400
     19 C          63.6683   83.8073    9.3510 C.ar    1  UNL1        0.0228
     20 C          63.4852   83.1501   10.6869 C.ar    1  UNL1        0.0885
     21 N          63.9342   81.8229   11.2225 N.ar    1  UNL1       -0.2427
     22 C          63.4541   81.7082   12.6389 C.ar    1  UNL1        0.0886
     23 C          63.6801   80.5419   13.5548 C.3     1  UNL1        0.0594
     24 S          62.7083   82.9645   12.9788 S.2     1  UNL1       -0.0698
     25 C          62.7275   83.8557   11.7723 C.ar    1  UNL1        0.0617
     26 C          62.1530   85.2185   11.5219 C.ar    1  UNL1        0.0996
     27 CL         61.3954   85.9240   12.6073 Cl      1  UNL1       -0.0785
@<TRIPOS>BOND
     1    11    12    1
     2    12    13    2
     3    12    14   am
     4    14     9    1
     5     9    10    1
     6     9     7    1
     7     7     8    2
     8     8     1    1
     9     1     2   ar
    10     2     3   ar
    11     3     4   ar
    12     4    16    1
    13    16    17    1
    14    17    18   ar
    15    18    19   ar
    16    19    20   ar
    17    20    21   ar
    18    21    22   ar
    19    22    23    1
    20    22    24   ar
    21    24    25   ar
    22    25    26   ar
    23    26    27    1
    24     4     5   ar
    25     5     6   ar
    26     6     1   ar
    27    26    17   ar
    28    25    20   ar
    29    14    15    1
@<TRIPOS>MOLECULE
*****
 27 29 0 0 0
SMALL
GASTEIGER

@<TRIPOS>ATOM
      1 C          63.6337   90.8502   11.8166 C.ar    1  UNL1        0.0191
      2 C          63.1092   90.9306   10.4135 C.ar    1  UNL1        0.0063
      3 C          62.4875   89.7241    9.7750 C.ar    1  UNL1        0.0581
      4 C          62.3902   88.4371   10.5394 C.ar    1  UNL1        0.2297
      5 N          62.9147   88.3567   11.9424 N.ar    1  UNL1       -0.2098
      6 C          63.5365   89.5633   12.5810 C.ar    1  UNL1        0.1020
      7 C          65.4689   92.6890   11.8406 C.2     1  UNL1       -0.0069
      8 C          64.2554   92.0567   12.4551 C.2     1  UNL1       -0.0014
      9 C          66.0906   93.8955   12.4791 C.3     1  UNL1        0.0939
     10 C          66.7676   93.7736   13.8122 C.3     1  UNL1        0.0262
     11 C          66.8091   96.7921    9.8631 C.3     1  UNL1        0.0946
     12 C          66.8643   95.4636   10.5575 C.2     1  UNL1        0.2232
     13 O          67.7482   94.3751   10.0250 O.2     1  UNL1       -0.2751
     14 N          66.0355   95.2239   11.7846 N.am    1  UNL1       -0.3022
     15 H          65.4553   95.9384   12.1341 H       1  UNL1        0.1497
     16 O          61.7685   87.2306    9.9008 O.3     1  UNL1       -0.4352
     17 C          62.3382   85.8674   10.1603 C.ar    1  UNL1        0.1582
     18 C          63.0976   85.1541    9.0813 C.ar    1  UNL1        0.0400
     19 C          63.6673   83.7909    9.3408 C.ar    1  UNL1        0.0228
     20 C          63.4774   83.1411   10.6793 C.ar    1  UNL1        0.0885
     21 N          63.9206   81.8153   11.2232 N.ar    1  UNL1       -0.2427
     22 C          63.4350   81.7093   12.6385 C.ar    1  UNL1        0.0886
     23 C          63.6542   80.5471   13.5611 C.3     1  UNL1        0.0594
     24 S          62.6916   82.9695   12.9692 S.2     1  UNL1       -0.0698
     25 C          62.7178   83.8544   11.7583 C.ar    1  UNL1        0.0617
     26 C          62.1482   85.2176   11.4988 C.ar    1  UNL1        0.0996
     27 CL         61.3887   85.9309   12.5778 Cl      1  UNL1       -0.0785
@<TRIPOS>BOND
     1    11    12    1
     2    12    13    2
     3    12    14   am
     4    14     9    1
     5     9    10    1
     6     9     7    1
     7     7     8    2
     8     8     1    1
     9     1     2   ar
    10     2     3   ar
    11     3     4   ar
    12     4    16    1
    13    16    17    1
    14    17    18   ar
    15    18    19   ar
    16    19    20   ar
    17    20    21   ar
    18    21    22   ar
    19    22    23    1
    20    22    24   ar
    21    24    25   ar
    22    25    26   ar
    23    26    27    1
    24     4     5   ar
    25     5     6   ar
    26     6     1   ar
    27    26    17   ar
    28    25    20   ar
    29    14    15    1
@<TRIPOS>MOLECULE
*****
 27 29 0 0 0
SMALL
GASTEIGER

@<TRIPOS>ATOM
      1 C          63.1217   86.2223   12.8413 C.ar    1  UNL1        0.0191
      2 C          62.8234   87.4535   12.0380 C.ar    1  UNL1        0.0063
      3 C          63.2314   88.8020   12.5529 C.ar    1  UNL1        0.0581
      4 C          63.9377   88.9194   13.8710 C.ar    1  UNL1        0.2297
      5 N          64.2359   87.6882   14.6743 N.ar    1  UNL1       -0.2098
      6 C          63.8280   86.3396   14.1593 C.ar    1  UNL1        0.1020
      7 C          63.7571   83.8398   12.0230 C.2     1  UNL1       -0.0069
      8 C          62.7138   84.8738   12.3264 C.2     1  UNL1       -0.0014
      9 C          63.3492   82.4913   11.5081 C.3     1  UNL1        0.0939
     10 C          64.1247   81.8464   10.3977 C.3     1  UNL1        0.0262
     11 C          61.0251   80.6200   14.1247 C.3     1  UNL1        0.0946
     12 C          62.2085   81.3236   13.5293 C.2     1  UNL1        0.2232
     13 O          63.4345   81.5631   14.3597 O.2     1  UNL1       -0.2751
     14 N          62.1658   81.7877   12.1035 N.am    1  UNL1       -0.3022
     15 H          61.3611   81.6305   11.5585 H       1  UNL1        0.1497
     16 O          64.3456   90.2679   14.3859 O.3     1  UNL1       -0.4352
     17 C          65.2513   91.1403   13.5682 C.ar    1  UNL1        0.1582
     18 C          66.6802   91.3337   13.9812 C.ar    1  UNL1        0.0400
     19 C          67.5859   92.2061   13.1634 C.ar    1  UNL1        0.0228
     20 C          67.0625   92.8852   11.9326 C.ar    1  UNL1        0.0885
     21 N          67.7140   93.7969   10.9354 N.ar    1  UNL1       -0.2427
     22 C          66.6876   94.1670    9.9061 C.ar    1  UNL1        0.0886
     23 C          66.9082   95.0627    8.7233 C.3     1  UNL1        0.0594
     24 S          65.4018   93.4840   10.2671 S.2     1  UNL1       -0.0698
     25 C          65.6335   92.6918   11.5196 C.ar    1  UNL1        0.0617
     26 C          64.7279   91.8194   12.3374 C.ar    1  UNL1        0.0996
     27 CL         63.2989   91.6260   11.9243 Cl      1  UNL1       -0.0785
@<TRIPOS>BOND
     1    11    12    1
     2    12    13    2
     3    12    14   am
     4    14     9    1
     5     9    10    1
     6     9     7    1
     7     7     8    2
     8     8     1    1
     9     1     2   ar
    10     2     3   ar
    11     3     4   ar
    12     4    16    1
    13    16    17    1
    14    17    18   ar
    15    18    19   ar
    16    19    20   ar
    17    20    21   ar
    18    21    22   ar
    19    22    23    1
    20    22    24   ar
    21    24    25   ar
    22    25    26   ar
    23    26    27    1
    24     4     5   ar
    25     5     6   ar
    26     6     1   ar
    27    26    17   ar
    28    25    20   ar
    29    14    15    1
@<TRIPOS>MOLECULE
*****
 27 29 0 0 0
SMALL
GASTEIGER

@<TRIPOS>ATOM
      1 C          59.6773   92.2019    4.1278 C.ar    1  UNL1        0.0191
      2 C          58.2736   91.9452    4.5902 C.ar    1  UNL1        0.0063
      3 C          57.9900   90.8145    5.5342 C.ar    1  UNL1        0.0581
      4 C          59.1100   89.9405    6.0158 C.ar    1  UNL1        0.2297
      5 N          60.5136   90.1973    5.5533 N.ar    1  UNL1       -0.2098
      6 C          60.7972   91.3281    4.6093 C.ar    1  UNL1        0.1020
      7 C          59.7395   93.1536    1.7111 C.2     1  UNL1       -0.0069
      8 C          59.9609   93.3326    3.1838 C.2     1  UNL1       -0.0014
      9 C          60.0231   94.2843    0.7671 C.3     1  UNL1        0.0939
     10 C          59.9547   95.7019    1.2529 C.3     1  UNL1        0.0262
     11 C          62.1582   93.4863   -2.4816 C.3     1  UNL1        0.0946
     12 C          61.8062   93.7732   -1.0520 C.2     1  UNL1        0.2232
     13 O          62.8853   93.8358   -0.0120 O.2     1  UNL1       -0.2751
     14 N          60.3751   93.9974   -0.6625 N.am    1  UNL1       -0.3022
     15 H          59.6669   93.9564   -1.3451 H       1  UNL1        0.1497
     16 O          58.8264   88.8098    6.9597 O.3     1  UNL1       -0.4352
     17 C          59.7028   88.5956    8.1581 C.ar    1  UNL1        0.1582
     18 C          60.1415   89.7673    8.9855 C.ar    1  UNL1        0.0400
     19 C          61.0179   89.5531   10.1839 C.ar    1  UNL1        0.0228
     20 C          61.4555   88.1672   10.5549 C.ar    1  UNL1        0.0885
     21 N          62.3126   87.6507   11.6723 N.ar    1  UNL1       -0.2427
     22 C          62.4036   86.1597   11.5355 C.ar    1  UNL1        0.0886
     23 C          63.1622   85.2358   12.4415 C.3     1  UNL1        0.0594
     24 S          61.6028   85.7547   10.3335 S.2     1  UNL1       -0.0698
     25 C          61.0168   86.9955    9.7275 C.ar    1  UNL1        0.0617
     26 C          60.1405   87.2097    8.5291 C.ar    1  UNL1        0.0996
     27 CL         59.7017   86.0380    7.7017 Cl      1  UNL1       -0.0785
@<TRIPOS>BOND
     1    11    12    1
     2    12    13    2
     3    12    14   am
     4    14     9    1
     5     9    10    1
     6     9     7    1
     7     7     8    2
     8     8     1    1
     9     1     2   ar
    10     2     3   ar
    11     3     4   ar
    12     4    16    1
    13    16    17    1
    14    17    18   ar
    15    18    19   ar
    16    19    20   ar
    17    20    21   ar
    18    21    22   ar
    19    22    23    1
    20    22    24   ar
    21    24    25   ar
    22    25    26   ar
    23    26    27    1
    24     4     5   ar
    25     5     6   ar
    26     6     1   ar
    27    26    17   ar
    28    25    20   ar
    29    14    15    1
@<TRIPOS>MOLECULE
*****
 27 29 0 0 0
SMALL
GASTEIGER

@<TRIPOS>ATOM
      1 C          59.3861   90.3900    5.5743 C.ar    1  UNL1        0.0191
      2 C          60.7431   90.6950    5.0122 C.ar    1  UNL1        0.0063
      3 C          60.9332   91.8804    4.1130 C.ar    1  UNL1        0.0581
      4 C          59.7665   92.7609    3.7757 C.ar    1  UNL1        0.2297
      5 N          58.4097   92.4559    4.3378 N.ar    1  UNL1       -0.2098
      6 C          58.2195   91.2704    5.2371 C.ar    1  UNL1        0.1020
      7 C          59.9766   89.0987    7.7500 C.2     1  UNL1       -0.0069
      8 C          59.1960   89.2046    6.4735 C.2     1  UNL1       -0.0014
      9 C          59.7865   87.9133    8.6492 C.3     1  UNL1        0.0939
     10 C          58.9250   86.7675    8.2075 C.3     1  UNL1        0.0262
     11 C          62.4404   87.1238   11.4923 C.3     1  UNL1        0.0946
     12 C          61.7691   87.1634   10.1514 C.2     1  UNL1        0.2232
     13 O          62.4090   86.4927    8.9722 O.2     1  UNL1       -0.2751
     14 N          60.4578   87.8737    9.9900 N.am    1  UNL1       -0.3022
     15 H          60.0378   88.3139   10.7640 H       1  UNL1        0.1497
     16 O          59.9567   93.9463    2.8765 O.3     1  UNL1       -0.4352
     17 C          60.9048   93.8636    1.7170 C.ar    1  UNL1        0.1582
     18 C          62.3810   93.7593    1.9612 C.ar    1  UNL1        0.0400
     19 C          63.3291   93.6766    0.8017 C.ar    1  UNL1        0.0228
     20 C          62.8008   93.6982   -0.6020 C.ar    1  UNL1        0.0885
     21 N          63.4874   93.6325   -1.9340 N.ar    1  UNL1       -0.2427
     22 C          62.4355   93.6961   -3.0014 C.ar    1  UNL1        0.0886
     23 C          62.6778   93.6609   -4.4813 C.3     1  UNL1        0.0594
     24 S          61.0987   93.8012   -2.3291 S.2     1  UNL1       -0.0698
     25 C          61.3244   93.8025   -0.8462 C.ar    1  UNL1        0.0617
     26 C          60.3764   93.8852    0.3133 C.ar    1  UNL1        0.0996
     27 CL         58.9001   93.9895    0.0691 Cl      1  UNL1       -0.0785
@<TRIPOS>BOND
     1    11    12    1
     2    12    13    2
     3    12    14   am
     4    14     9    1
     5     9    10    1
     6     9     7    1
     7     7     8    2
     8     8     1    1
     9     1     2   ar
    10     2     3   ar
    11     3     4   ar
    12     4    16    1
    13    16    17    1
    14    17    18   ar
    15    18    19   ar
    16    19    20   ar
    17    20    21   ar
    18    21    22   ar
    19    22    23    1
    20    22    24   ar
    21    24    25   ar
    22    25    26   ar
    23    26    27    1
    24     4     5   ar
    25     5     6   ar
    26     6     1   ar
    27    26    17   ar
    28    25    20   ar
    29    14    15    1
@<TRIPOS>MOLECULE
*****
 27 29 0 0 0
SMALL
GASTEIGER

@<TRIPOS>ATOM
      1 C          59.2907   90.3911    5.6726 C.ar    1  UNL1        0.0191
      2 C          60.6596   90.7078    5.1473 C.ar    1  UNL1        0.0063
      3 C          60.8579   91.8750    4.2262 C.ar    1  UNL1        0.0581
      4 C          59.6874   92.7253    3.8303 C.ar    1  UNL1        0.2297
      5 N          58.3185   92.4085    4.3555 N.ar    1  UNL1       -0.2098
      6 C          58.1202   91.2413    5.2767 C.ar    1  UNL1        0.1020
      7 C          60.1168   88.9160    7.6453 C.2     1  UNL1       -0.0069
      8 C          59.0924   89.2239    6.5937 C.2     1  UNL1       -0.0014
      9 C          59.9185   87.7489    8.5664 C.3     1  UNL1        0.0939
     10 C          60.3238   86.3721    8.1304 C.3     1  UNL1        0.0262
     11 C          59.4552   88.9552   12.3188 C.3     1  UNL1        0.0946
     12 C          60.0588   88.7455   10.9617 C.2     1  UNL1        0.2232
     13 O          61.4061   89.3226   10.6427 O.2     1  UNL1       -0.2751
     14 N          59.3149   87.9586    9.9236 N.am    1  UNL1       -0.3022
     15 H          58.4307   87.5798   10.1330 H       1  UNL1        0.1497
     16 O          59.8856   93.8925    2.9092 O.3     1  UNL1       -0.4352
     17 C          60.2470   93.6606    1.4718 C.ar    1  UNL1        0.1582
     18 C          59.2084   93.1703    0.5071 C.ar    1  UNL1        0.0400
     19 C          59.5697   92.9384   -0.9302 C.ar    1  UNL1        0.0228
     20 C          60.9697   93.1969   -1.4026 C.ar    1  UNL1        0.0885
     21 N          61.6159   93.0599   -2.7493 N.ar    1  UNL1       -0.2427
     22 C          63.0539   93.4656   -2.6168 C.ar    1  UNL1        0.0886
     23 C          64.0709   93.4809   -3.7194 C.3     1  UNL1        0.0594
     24 S          63.2965   93.8532   -1.1882 S.2     1  UNL1       -0.0698
     25 C          62.0083   93.6871   -0.4378 C.ar    1  UNL1        0.0617
     26 C          61.6470   93.9190    0.9994 C.ar    1  UNL1        0.0996
     27 CL         62.6856   94.4093    1.9643 Cl      1  UNL1       -0.0785
@<TRIPOS>BOND
     1    11    12    1
     2    12    13    2
     3    12    14   am
     4    14     9    1
     5     9    10    1
     6     9     7    1
     7     7     8    2
     8     8     1    1
     9     1     2   ar
    10     2     3   ar
    11     3     4   ar
    12     4    16    1
    13    16    17    1
    14    17    18   ar
    15    18    19   ar
    16    19    20   ar
    17    20    21   ar
    18    21    22   ar
    19    22    23    1
    20    22    24   ar
    21    24    25   ar
    22    25    26   ar
    23    26    27    1
    24     4     5   ar
    25     5     6   ar
    26     6     1   ar
    27    26    17   ar
    28    25    20   ar
    29    14    15    1
@<TRIPOS>MOLECULE
*****
 27 29 0 0 0
SMALL
GASTEIGER

@<TRIPOS>ATOM
      1 C          62.5389   85.6988   11.8318 C.ar    1  UNL1        0.0191
      2 C          61.6611   86.4902   10.9080 C.ar    1  UNL1        0.0063
      3 C          61.5809   87.9818   11.0442 C.ar    1  UNL1        0.0581
      4 C          62.3784   88.6822   12.1042 C.ar    1  UNL1        0.2297
      5 N          63.2562   87.8908   13.0279 N.ar    1  UNL1       -0.2098
      6 C          63.3364   86.3991   12.8917 C.ar    1  UNL1        0.1020
      7 C          63.7806   83.4618   12.2833 C.2     1  UNL1       -0.0069
      8 C          62.6191   84.2072   11.6956 C.2     1  UNL1       -0.0014
      9 C          63.8607   81.9702   12.1471 C.3     1  UNL1        0.0939
     10 C          64.2189   81.1268   13.3348 C.3     1  UNL1        0.0262
     11 C          62.6510   79.3246    9.4476 C.3     1  UNL1        0.0946
     12 C          62.9289   79.9729   10.7714 C.2     1  UNL1        0.2232
     13 O          62.5530   79.2722   12.0433 O.2     1  UNL1       -0.2751
     14 N          63.5828   81.3219   10.8233 N.am    1  UNL1       -0.3022
     15 H          63.8296   81.7818    9.9885 H       1  UNL1        0.1497
     16 O          62.2982   90.1738   12.2404 O.3     1  UNL1       -0.4352
     17 C          63.5484   91.0007   12.1798 C.ar    1  UNL1        0.1582
     18 C          64.4342   91.1103   13.3852 C.ar    1  UNL1        0.0400
     19 C          65.6843   91.9371   13.3247 C.ar    1  UNL1        0.0228
     20 C          66.0484   92.6544   12.0586 C.ar    1  UNL1        0.0885
     21 N          67.2085   93.5362   11.7027 N.ar    1  UNL1       -0.2427
     22 C          67.0395   93.9716   10.2773 C.ar    1  UNL1        0.0886
     23 C          67.9715   94.8631    9.5113 C.3     1  UNL1        0.0594
     24 S          65.7750   93.3589    9.7522 S.2     1  UNL1       -0.0698
     25 C          65.1625   92.5449   10.8532 C.ar    1  UNL1        0.0617
     26 C          63.9124   91.7180   10.9138 C.ar    1  UNL1        0.0996
     27 CL         63.0265   91.6084    9.7083 Cl      1  UNL1       -0.0785
@<TRIPOS>BOND
     1    11    12    1
     2    12    13    2
     3    12    14   am
     4    14     9    1
     5     9    10    1
     6     9     7    1
     7     7     8    2
     8     8     1    1
     9     1     2   ar
    10     2     3   ar
    11     3     4   ar
    12     4    16    1
    13    16    17    1
    14    17    18   ar
    15    18    19   ar
    16    19    20   ar
    17    20    21   ar
    18    21    22   ar
    19    22    23    1
    20    22    24   ar
    21    24    25   ar
    22    25    26   ar
    23    26    27    1
    24     4     5   ar
    25     5     6   ar
    26     6     1   ar
    27    26    17   ar
    28    25    20   ar
    29    14    15    1
