@<TRIPOS>MOLECULE
*****
 32 36 0 0 0
SMALL
GASTEIGER

@<TRIPOS>ATOM
      1 C          58.9176   90.3673    5.8483 C.ar    1  UNL1        0.1385
      2 C          58.0050   91.4078    5.2699 C.ar    1  UNL1        0.0384
      3 C          58.5155   92.3565    4.2262 C.ar    1  UNL1        0.0203
      4 C          59.9386   92.2647    3.7609 C.ar    1  UNL1        0.0602
      5 C          60.8511   91.2242    4.3393 C.ar    1  UNL1        0.0204
      6 C          60.3407   90.2755    5.3830 C.ar    1  UNL1        0.0384
      7 C          62.1948   91.3733    3.6895 C.ar    1  UNL1        0.0234
      8 C          62.1127   92.5059    2.7095 C.ar    1  UNL1        0.1143
      9 N          60.7183   93.0569    2.7536 N.ar    1  UNL1       -0.3219
     10 C          60.3386   94.2086    1.8709 C.3     1  UNL1        0.1276
     11 C          61.3534   94.8094    0.9440 C.3     1  UNL1        0.1185
     12 N          62.7479   94.2585    0.8998 N.am    1  UNL1       -0.2688
     13 C          63.1275   93.1067    1.7826 C.2     1  UNL1        0.2652
     14 O          64.5220   92.5557    1.7385 O.2     1  UNL1       -0.2683
     15 O          58.4071   89.4185    6.8920 O.3     1  UNL1       -0.4791
     16 N          61.2643   86.6801    9.0338 N.3     1  UNL1       -0.2737
     17 C          61.2022   88.1335    9.3993 C.3     1  UNL1        0.0758
     18 C          60.2498   89.0464    8.6854 C.3     1  UNL1        0.0609
     19 C          59.3595   88.5057    7.6060 C.3     1  UNL1        0.1687
     20 C          59.4216   87.0522    7.2405 C.3     1  UNL1        0.0609
     21 C          60.3740   86.1394    7.9544 C.3     1  UNL1        0.0758
     22 C          63.1664   84.9117    8.9628 C.3     1  UNL1        0.0173
     23 C          62.2167   85.7673    9.7478 C.3     1  UNL1        0.0576
     24 C          62.2194   85.7100   11.2467 C.3     1  UNL1        0.0173
     25 C          63.7628   94.8593   -0.0271 C.3     1  UNL1        0.1205
     26 C          63.7299   94.5301   -1.4902 C.ar    1  UNL1       -0.0022
     27 C          64.4991   95.3709   -2.4656 C.ar    1  UNL1       -0.0003
     28 C          64.4662   95.0416   -3.9286 C.ar    1  UNL1        0.0294
     29 C          63.6643   93.8716   -4.4162 C.ar    1  UNL1        0.1401
     30 F          63.6314   93.5424   -5.8793 F       1  UNL1       -0.2042
     31 C          62.8951   93.0308   -3.4408 C.ar    1  UNL1        0.0294
     32 C          62.9280   93.3601   -1.9777 C.ar    1  UNL1       -0.0003
@<TRIPOS>BOND
     1    22    23    1
     2    23    24    1
     3    23    16    1
     4    16    17    1
     5    17    18    1
     6    18    19    1
     7    19    15    1
     8    15     1    1
     9     1     2   ar
    10     2     3   ar
    11     3     4   ar
    12     4     5   ar
    13     5     6   ar
    14     5     7   ar
    15     7     8   ar
    16     8     9   ar
    17     9    10    1
    18    10    11    1
    19    11    12    1
    20    12    25    1
    21    25    26    1
    22    26    27   ar
    23    27    28   ar
    24    28    29   ar
    25    29    30    1
    26    29    31   ar
    27    31    32   ar
    28    12    13   am
    29    13    14    2
    30    19    20    1
    31    20    21    1
    32    21    16    1
    33     6     1   ar
    34    13     8    1
    35     9     4   ar
    36    32    26   ar
@<TRIPOS>MOLECULE
*****
 32 36 0 0 0
SMALL
GASTEIGER

@<TRIPOS>ATOM
      1 C          58.9262   90.3839    5.8380 C.ar    1  UNL1        0.1385
      2 C          58.0167   91.4205    5.2479 C.ar    1  UNL1        0.0384
      3 C          58.5333   92.3638    4.2024 C.ar    1  UNL1        0.0203
      4 C          59.9595   92.2706    3.7469 C.ar    1  UNL1        0.0602
      5 C          60.8690   91.2340    4.3370 C.ar    1  UNL1        0.0204
      6 C          60.3524   90.2907    5.3825 C.ar    1  UNL1        0.0384
      7 C          62.2168   91.3805    3.6951 C.ar    1  UNL1        0.0234
      8 C          62.1403   92.5076    2.7083 C.ar    1  UNL1        0.1143
      9 N          60.7452   93.0577    2.7403 N.ar    1  UNL1       -0.3219
     10 C          60.3705   94.2043    1.8488 C.3     1  UNL1        0.1276
     11 C          61.3909   94.8008    0.9252 C.3     1  UNL1        0.1185
     12 N          62.7860   94.2506    0.8933 N.am    1  UNL1       -0.2688
     13 C          63.1607   93.1040    1.7848 C.2     1  UNL1        0.2652
     14 O          64.5559   92.5539    1.7528 O.2     1  UNL1       -0.2683
     15 O          58.4096   89.4405    6.8836 O.3     1  UNL1       -0.4791
     16 N          61.2531   86.7080    9.0510 N.3     1  UNL1       -0.2737
     17 C          60.3772   86.1665    7.9605 C.3     1  UNL1        0.0758
     18 C          59.4293   87.0773    7.2379 C.3     1  UNL1        0.0609
     19 C          59.3574   88.5297    7.6060 C.3     1  UNL1        0.1687
     20 C          60.2335   89.0712    8.6967 C.3     1  UNL1        0.0609
     21 C          61.1813   88.1604    9.4191 C.3     1  UNL1        0.0758
     22 C          62.1841   85.7332   11.2720 C.3     1  UNL1        0.0173
     23 C          62.2010   85.7972    9.7735 C.3     1  UNL1        0.0576
     24 C          63.1657   84.9503    8.9974 C.3     1  UNL1        0.0173
     25 C          63.8065   94.8471   -0.0303 C.3     1  UNL1        0.1205
     26 C          63.7820   94.5117   -1.4921 C.ar    1  UNL1       -0.0022
     27 C          64.5377   95.3623   -2.4696 C.ar    1  UNL1       -0.0003
     28 C          64.5132   95.0268   -3.9314 C.ar    1  UNL1        0.0294
     29 C          63.7330   93.8409   -4.4157 C.ar    1  UNL1        0.1401
     30 F          63.7084   93.5055   -5.8775 F       1  UNL1       -0.2042
     31 C          62.9772   92.9903   -3.4383 C.ar    1  UNL1        0.0294
     32 C          63.0017   93.3258   -1.9764 C.ar    1  UNL1       -0.0003
@<TRIPOS>BOND
     1    22    23    1
     2    23    24    1
     3    23    16    1
     4    16    17    1
     5    17    18    1
     6    18    19    1
     7    19    15    1
     8    15     1    1
     9     1     2   ar
    10     2     3   ar
    11     3     4   ar
    12     4     5   ar
    13     5     6   ar
    14     5     7   ar
    15     7     8   ar
    16     8     9   ar
    17     9    10    1
    18    10    11    1
    19    11    12    1
    20    12    25    1
    21    25    26    1
    22    26    27   ar
    23    27    28   ar
    24    28    29   ar
    25    29    30    1
    26    29    31   ar
    27    31    32   ar
    28    12    13   am
    29    13    14    2
    30    19    20    1
    31    20    21    1
    32    21    16    1
    33     6     1   ar
    34    13     8    1
    35     9     4   ar
    36    32    26   ar
@<TRIPOS>MOLECULE
*****
 32 36 0 0 0
SMALL
GASTEIGER

@<TRIPOS>ATOM
      1 C          59.2394   89.2077    7.2746 C.ar    1  UNL1        0.1385
      2 C          59.0854   87.7159    7.2978 C.ar    1  UNL1        0.0384
      3 C          59.8196   86.9020    8.3218 C.ar    1  UNL1        0.0203
      4 C          60.7079   87.5800    9.3224 C.ar    1  UNL1        0.0602
      5 C          60.8619   89.0719    9.2992 C.ar    1  UNL1        0.0204
      6 C          60.1277   89.8857    8.2752 C.ar    1  UNL1        0.0384
      7 C          61.8004   89.4582   10.4037 C.ar    1  UNL1        0.0234
      8 C          62.2264   88.2051   11.1096 C.ar    1  UNL1        0.1143
      9 N          61.5512   87.0443   10.4414 N.ar    1  UNL1       -0.3219
     10 C          61.7915   85.6495   10.9381 C.3     1  UNL1        0.1276
     11 C          62.7069   85.4155   12.1030 C.3     1  UNL1        0.1185
     12 N          63.3821   86.5764   12.7712 N.am    1  UNL1       -0.2688
     13 C          63.1418   87.9712   12.2745 C.2     1  UNL1        0.2652
     14 O          63.8171   89.1321   12.9428 O.2     1  UNL1       -0.2683
     15 O          58.5052   90.0217    6.2506 O.3     1  UNL1       -0.4791
     16 N          60.8022   92.4493    3.2372 N.3     1  UNL1       -0.2737
     17 C          59.3255   92.6573    3.3992 C.3     1  UNL1        0.0758
     18 C          58.5598   91.8481    4.4036 C.3     1  UNL1        0.0609
     19 C          59.2708   90.8309    5.2461 C.3     1  UNL1        0.1687
     20 C          60.7475   90.6229    5.0842 C.3     1  UNL1        0.0609
     21 C          61.5132   91.4322    4.0797 C.3     1  UNL1        0.0758
     22 C          62.9559   92.8478    1.8399 C.3     1  UNL1        0.0173
     23 C          61.5678   93.2586    2.2328 C.3     1  UNL1        0.0576
     24 C          60.9453   94.4787    1.6212 C.3     1  UNL1        0.0173
     25 C          64.2977   86.3424   13.9362 C.3     1  UNL1        0.1205
     26 C          63.8021   86.5602   15.3352 C.ar    1  UNL1       -0.0022
     27 C          63.4944   85.3839   16.2135 C.ar    1  UNL1       -0.0003
     28 C          62.9988   85.6017   17.6124 C.ar    1  UNL1        0.0294
     29 C          62.8109   86.9958   18.1329 C.ar    1  UNL1        0.1401
     30 F          62.3152   87.2136   19.5318 F       1  UNL1       -0.2042
     31 C          63.1185   88.1722   17.2545 C.ar    1  UNL1        0.0294
     32 C          63.6141   87.9543   15.8556 C.ar    1  UNL1       -0.0003
@<TRIPOS>BOND
     1    22    23    1
     2    23    24    1
     3    23    16    1
     4    16    17    1
     5    17    18    1
     6    18    19    1
     7    19    15    1
     8    15     1    1
     9     1     2   ar
    10     2     3   ar
    11     3     4   ar
    12     4     5   ar
    13     5     6   ar
    14     5     7   ar
    15     7     8   ar
    16     8     9   ar
    17     9    10    1
    18    10    11    1
    19    11    12    1
    20    12    25    1
    21    25    26    1
    22    26    27   ar
    23    27    28   ar
    24    28    29   ar
    25    29    30    1
    26    29    31   ar
    27    31    32   ar
    28    12    13   am
    29    13    14    2
    30    19    20    1
    31    20    21    1
    32    21    16    1
    33     6     1   ar
    34    13     8    1
    35     9     4   ar
    36    32    26   ar
@<TRIPOS>MOLECULE
*****
 32 36 0 0 0
SMALL
GASTEIGER

@<TRIPOS>ATOM
      1 C          64.9840   91.8503   12.9766 C.ar    1  UNL1        0.1385
      2 C          64.1501   91.4929   11.7822 C.ar    1  UNL1        0.0384
      3 C          63.5673   90.1163   11.6591 C.ar    1  UNL1        0.0203
      4 C          63.8185   89.0970   12.7305 C.ar    1  UNL1        0.0602
      5 C          64.6524   89.4543   13.9250 C.ar    1  UNL1        0.0204
      6 C          65.2352   90.8309   14.0481 C.ar    1  UNL1        0.0384
      7 C          64.7280   88.2491   14.8148 C.ar    1  UNL1        0.0234
      8 C          63.9407   87.1469   14.1703 C.ar    1  UNL1        0.1143
      9 N          63.3786   87.6709   12.8821 N.ar    1  UNL1       -0.3219
     10 C          62.5389   86.7819   12.0136 C.3     1  UNL1        0.1276
     11 C          62.2613   85.3688   12.4332 C.3     1  UNL1        0.1185
     12 N          62.8234   84.8448   13.7214 N.am    1  UNL1       -0.2688
     13 C          63.6632   85.7339   14.5899 C.2     1  UNL1        0.2652
     14 O          64.2254   85.2098   15.8782 O.2     1  UNL1       -0.2683
     15 O          65.5669   93.2270   13.0998 O.3     1  UNL1       -0.4791
     16 N          66.4267   95.6452    9.4034 N.3     1  UNL1       -0.2737
     17 C          66.4184   94.1468    9.3343 C.3     1  UNL1        0.0758
     18 C          66.1318   93.3407   10.5664 C.3     1  UNL1        0.0609
     19 C          65.8535   94.0330   11.8677 C.3     1  UNL1        0.1687
     20 C          65.8617   95.5314   11.9368 C.3     1  UNL1        0.0609
     21 C          66.1483   96.3375   10.7047 C.3     1  UNL1        0.0758
     22 C          65.5914   96.8538    7.2607 C.3     1  UNL1        0.0173
     23 C          66.7132   96.4512    8.1713 C.3     1  UNL1        0.0576
     24 C          68.1218   96.8547    7.8498 C.3     1  UNL1        0.0173
     25 C          62.5458   83.4316   14.1411 C.3     1  UNL1        0.1205
     26 C          62.6524   82.3178   13.1420 C.ar    1  UNL1       -0.0022
     27 C          62.2596   80.9229   13.5291 C.ar    1  UNL1       -0.0003
     28 C          62.3662   79.8092   12.5300 C.ar    1  UNL1        0.0294
     29 C          62.8656   80.0904   11.1439 C.ar    1  UNL1        0.1401
     30 F          62.9722   78.9766   10.1448 F       1  UNL1       -0.2042
     31 C          63.2584   81.4853   10.7568 C.ar    1  UNL1        0.0294
     32 C          63.1518   82.5991   11.7559 C.ar    1  UNL1       -0.0003
@<TRIPOS>BOND
     1    22    23    1
     2    23    24    1
     3    23    16    1
     4    16    17    1
     5    17    18    1
     6    18    19    1
     7    19    15    1
     8    15     1    1
     9     1     2   ar
    10     2     3   ar
    11     3     4   ar
    12     4     5   ar
    13     5     6   ar
    14     5     7   ar
    15     7     8   ar
    16     8     9   ar
    17     9    10    1
    18    10    11    1
    19    11    12    1
    20    12    25    1
    21    25    26    1
    22    26    27   ar
    23    27    28   ar
    24    28    29   ar
    25    29    30    1
    26    29    31   ar
    27    31    32   ar
    28    12    13   am
    29    13    14    2
    30    19    20    1
    31    20    21    1
    32    21    16    1
    33     6     1   ar
    34    13     8    1
    35     9     4   ar
    36    32    26   ar
@<TRIPOS>MOLECULE
*****
 32 36 0 0 0
SMALL
GASTEIGER

@<TRIPOS>ATOM
      1 C          64.0964   87.2211   14.9410 C.ar    1  UNL1        0.1385
      2 C          63.4354   87.2389   13.5946 C.ar    1  UNL1        0.0384
      3 C          63.5586   88.4473   12.7146 C.ar    1  UNL1        0.0203
      4 C          64.3428   89.6379   13.1809 C.ar    1  UNL1        0.0602
      5 C          65.0038   89.6202   14.5272 C.ar    1  UNL1        0.0204
      6 C          64.8806   88.4118   15.4073 C.ar    1  UNL1        0.0384
      7 C          65.7062   90.9320   14.7161 C.ar    1  UNL1        0.0234
      8 C          65.4794   91.7605   13.4864 C.ar    1  UNL1        0.1143
      9 N          64.6367   90.9608   12.5375 N.ar    1  UNL1       -0.3219
     10 C          64.2460   91.5403   11.2105 C.3     1  UNL1        0.1276
     11 C          64.6979   92.9197   10.8321 C.3     1  UNL1        0.1185
     12 N          65.5405   93.7195   11.7809 N.am    1  UNL1       -0.2688
     13 C          65.9313   93.1398   13.1081 C.2     1  UNL1        0.2652
     14 O          66.7740   93.9397   14.0570 O.2     1  UNL1       -0.2683
     15 O          63.9733   86.0127   15.8211 O.3     1  UNL1       -0.4791
     16 N          62.5824   82.0995   14.0884 N.3     1  UNL1       -0.2737
     17 C          61.5906   83.0427   14.7021 C.3     1  UNL1        0.0758
     18 C          62.0542   84.3471   15.2797 C.3     1  UNL1        0.0609
     19 C          63.5096   84.7083   15.2435 C.3     1  UNL1        0.1687
     20 C          64.5014   83.7650   14.6297 C.3     1  UNL1        0.0609
     21 C          64.0378   82.4607   14.0522 C.3     1  UNL1        0.0758
     22 C          62.7932   80.2310   12.2956 C.3     1  UNL1        0.0173
     23 C          62.1187   80.7951   13.5108 C.3     1  UNL1        0.0576
     24 C          60.9805   80.0548   14.1485 C.3     1  UNL1        0.0173
     25 C          65.9925   95.0989   11.4026 C.3     1  UNL1        0.1205
     26 C          65.9442   95.5370    9.9688 C.ar    1  UNL1       -0.0022
     27 C          67.0131   95.0959    9.0134 C.ar    1  UNL1       -0.0003
     28 C          66.9649   95.5341    7.5796 C.ar    1  UNL1        0.0294
     29 C          65.8478   96.4133    7.1013 C.ar    1  UNL1        0.1401
     30 F          65.7995   96.8515    5.6676 F       1  UNL1       -0.2042
     31 C          64.7788   96.8544    8.0567 C.ar    1  UNL1        0.0294
     32 C          64.8271   96.4163    9.4905 C.ar    1  UNL1       -0.0003
@<TRIPOS>BOND
     1    22    23    1
     2    23    24    1
     3    23    16    1
     4    16    17    1
     5    17    18    1
     6    18    19    1
     7    19    15    1
     8    15     1    1
     9     1     2   ar
    10     2     3   ar
    11     3     4   ar
    12     4     5   ar
    13     5     6   ar
    14     5     7   ar
    15     7     8   ar
    16     8     9   ar
    17     9    10    1
    18    10    11    1
    19    11    12    1
    20    12    25    1
    21    25    26    1
    22    26    27   ar
    23    27    28   ar
    24    28    29   ar
    25    29    30    1
    26    29    31   ar
    27    31    32   ar
    28    12    13   am
    29    13    14    2
    30    19    20    1
    31    20    21    1
    32    21    16    1
    33     6     1   ar
    34    13     8    1
    35     9     4   ar
    36    32    26   ar
@<TRIPOS>MOLECULE
*****
 32 36 0 0 0
SMALL
GASTEIGER

@<TRIPOS>ATOM
      1 C          59.3906   89.9826    6.8003 C.ar    1  UNL1        0.1385
      2 C          59.1155   88.5473    6.4626 C.ar    1  UNL1        0.0384
      3 C          59.6592   87.4543    7.3341 C.ar    1  UNL1        0.0203
      4 C          60.4781   87.7966    8.5434 C.ar    1  UNL1        0.0602
      5 C          60.7532   89.2320    8.8811 C.ar    1  UNL1        0.0204
      6 C          60.2094   90.3249    8.0095 C.ar    1  UNL1        0.0384
      7 C          61.5864   89.2633   10.1280 C.ar    1  UNL1        0.0234
      8 C          61.8262   87.8473   10.5609 C.ar    1  UNL1        0.1143
      9 N          61.1413   86.9408    9.5816 N.ar    1  UNL1       -0.3219
     10 C          61.2099   85.4533    9.7618 C.3     1  UNL1        0.1276
     11 C          61.9635   84.8722   10.9212 C.3     1  UNL1        0.1185
     12 N          62.6485   85.7787   11.9005 N.am    1  UNL1       -0.2688
     13 C          62.5798   87.2663   11.7204 C.2     1  UNL1        0.2652
     14 O          63.2648   88.1728   12.6998 O.2     1  UNL1       -0.2683
     15 O          58.8468   91.0757    5.9287 O.3     1  UNL1       -0.4791
     16 N          61.2685   92.5981    2.4549 N.3     1  UNL1       -0.2737
     17 C          59.8157   92.9535    2.5693 C.3     1  UNL1        0.0758
     18 C          59.0084   92.4460    3.7273 C.3     1  UNL1        0.0609
     19 C          59.6540   91.5832    4.7708 C.3     1  UNL1        0.1687
     20 C          61.1069   91.2278    4.6562 C.3     1  UNL1        0.0609
     21 C          61.9141   91.7353    3.4983 C.3     1  UNL1        0.0758
     22 C          63.4858   93.5698    1.5118 C.3     1  UNL1        0.0173
     23 C          62.0757   93.1056    1.2969 C.3     1  UNL1        0.0576
     24 C          61.4728   93.1489   -0.0760 C.3     1  UNL1        0.0173
     25 C          63.4022   85.1976   13.0601 C.3     1  UNL1        0.1205
     26 C          63.2944   83.7332   13.3665 C.ar    1  UNL1       -0.0022
     27 C          62.2059   83.2341   14.2698 C.ar    1  UNL1       -0.0003
     28 C          62.0981   81.7697   14.5762 C.ar    1  UNL1        0.0294
     29 C          63.0789   80.8045   13.9793 C.ar    1  UNL1        0.1401
     30 F          62.9711   79.3400   14.2858 F       1  UNL1       -0.2042
     31 C          64.1674   81.3036   13.0760 C.ar    1  UNL1        0.0294
     32 C          64.2752   82.7680   12.7696 C.ar    1  UNL1       -0.0003
@<TRIPOS>BOND
     1    22    23    1
     2    23    24    1
     3    23    16    1
     4    16    17    1
     5    17    18    1
     6    18    19    1
     7    19    15    1
     8    15     1    1
     9     1     2   ar
    10     2     3   ar
    11     3     4   ar
    12     4     5   ar
    13     5     6   ar
    14     5     7   ar
    15     7     8   ar
    16     8     9   ar
    17     9    10    1
    18    10    11    1
    19    11    12    1
    20    12    25    1
    21    25    26    1
    22    26    27   ar
    23    27    28   ar
    24    28    29   ar
    25    29    30    1
    26    29    31   ar
    27    31    32   ar
    28    12    13   am
    29    13    14    2
    30    19    20    1
    31    20    21    1
    32    21    16    1
    33     6     1   ar
    34    13     8    1
    35     9     4   ar
    36    32    26   ar
@<TRIPOS>MOLECULE
*****
 32 36 0 0 0
SMALL
GASTEIGER

@<TRIPOS>ATOM
      1 C          63.0309   84.9996   14.0003 C.ar    1  UNL1        0.1385
      2 C          62.4455   85.4316   12.6885 C.ar    1  UNL1        0.0384
      3 C          62.6791   86.8253   12.1857 C.ar    1  UNL1        0.0203
      4 C          63.4980   87.7871   12.9946 C.ar    1  UNL1        0.0602
      5 C          64.0833   87.3552   14.3064 C.ar    1  UNL1        0.0204
      6 C          63.8498   85.9614   14.8092 C.ar    1  UNL1        0.0384
      7 C          64.8421   88.5151   14.8798 C.ar    1  UNL1        0.0234
      8 C          64.7257   89.6640   13.9224 C.ar    1  UNL1        0.1143
      9 N          63.8950   89.2141   12.7573 N.ar    1  UNL1       -0.3219
     10 C          63.6074   90.1618   11.6309 C.3     1  UNL1        0.1276
     11 C          64.1505   91.5595   11.6694 C.3     1  UNL1        0.1185
     12 N          64.9812   92.0094   12.8345 N.am    1  UNL1       -0.2688
     13 C          65.2688   91.0616   13.9610 C.2     1  UNL1        0.2652
     14 O          66.0996   91.5116   15.1262 O.2     1  UNL1       -0.2683
     15 O          62.7974   83.6058   14.5032 O.3     1  UNL1       -0.4791
     16 N          62.7670   80.1496   11.6215 N.3     1  UNL1       -0.2737
     17 C          63.2911   81.4855   11.1849 C.3     1  UNL1        0.0758
     18 C          63.3012   82.6377   12.1455 C.3     1  UNL1        0.0609
     19 C          62.7873   82.4538   13.5426 C.3     1  UNL1        0.1687
     20 C          62.2632   81.1178   13.9792 C.3     1  UNL1        0.0609
     21 C          62.2531   79.9658   13.0187 C.3     1  UNL1        0.0758
     22 C          62.8100   79.2523    9.1837 C.3     1  UNL1        0.0173
     23 C          62.7569   78.9976   10.6610 C.3     1  UNL1        0.0576
     24 C          62.6937   77.5908   11.1777 C.3     1  UNL1        0.0173
     25 C          65.5243   93.4072   12.8732 C.3     1  UNL1        0.1205
     26 C          66.1453   94.0047   11.6454 C.ar    1  UNL1       -0.0022
     27 C          66.0425   95.4801   11.3952 C.ar    1  UNL1       -0.0003
     28 C          66.6635   96.0776   10.1674 C.ar    1  UNL1        0.0294
     29 C          67.3872   95.1997    9.1900 C.ar    1  UNL1        0.1401
     30 F          68.0082   95.7972    7.9622 F       1  UNL1       -0.2042
     31 C          67.4900   93.7243    9.4403 C.ar    1  UNL1        0.0294
     32 C          66.8691   93.1268   10.6680 C.ar    1  UNL1       -0.0003
@<TRIPOS>BOND
     1    22    23    1
     2    23    24    1
     3    23    16    1
     4    16    17    1
     5    17    18    1
     6    18    19    1
     7    19    15    1
     8    15     1    1
     9     1     2   ar
    10     2     3   ar
    11     3     4   ar
    12     4     5   ar
    13     5     6   ar
    14     5     7   ar
    15     7     8   ar
    16     8     9   ar
    17     9    10    1
    18    10    11    1
    19    11    12    1
    20    12    25    1
    21    25    26    1
    22    26    27   ar
    23    27    28   ar
    24    28    29   ar
    25    29    30    1
    26    29    31   ar
    27    31    32   ar
    28    12    13   am
    29    13    14    2
    30    19    20    1
    31    20    21    1
    32    21    16    1
    33     6     1   ar
    34    13     8    1
    35     9     4   ar
    36    32    26   ar
@<TRIPOS>MOLECULE
*****
 32 36 0 0 0
SMALL
GASTEIGER

@<TRIPOS>ATOM
      1 C          63.4611   84.3006   14.8910 C.ar    1  UNL1        0.1385
      2 C          64.1521   85.1426   15.9223 C.ar    1  UNL1        0.0384
      3 C          64.4055   86.5968   15.6560 C.ar    1  UNL1        0.0203
      4 C          63.9681   87.2090   14.3584 C.ar    1  UNL1        0.0602
      5 C          63.2771   86.3670   13.3271 C.ar    1  UNL1        0.0204
      6 C          63.0236   84.9128   13.5934 C.ar    1  UNL1        0.0384
      7 C          62.9626   87.2415   12.1497 C.ar    1  UNL1        0.0234
      8 C          63.4591   88.6240   12.4533 C.ar    1  UNL1        0.1143
      9 N          64.0806   88.6040   13.8183 N.ar    1  UNL1       -0.3219
     10 C          64.6686   89.8584   14.3932 C.3     1  UNL1        0.1276
     11 C          64.6352   91.1330   13.6030 C.3     1  UNL1        0.1185
     12 N          64.0137   91.1530   12.2379 N.am    1  UNL1       -0.2688
     13 C          63.4257   89.8985   11.6631 C.2     1  UNL1        0.2652
     14 O          62.8042   89.9186   10.2979 O.2     1  UNL1       -0.2683
     15 O          63.2076   82.8463   15.1573 O.3     1  UNL1       -0.4791
     16 N          62.8517   79.9589   11.7242 N.3     1  UNL1       -0.2737
     17 C          62.1272   79.6888   13.0096 C.3     1  UNL1        0.0758
     18 C          62.2458   80.6513   14.1540 C.3     1  UNL1        0.0609
     19 C          63.0889   81.8839   14.0130 C.3     1  UNL1        0.1687
     20 C          63.8134   82.1540   12.7276 C.3     1  UNL1        0.0609
     21 C          63.6948   81.1915   11.5832 C.3     1  UNL1        0.0758
     22 C          62.7749   77.5189   10.8352 C.3     1  UNL1        0.0173
     23 C          62.7330   78.9965   10.5799 C.3     1  UNL1        0.0576
     24 C          62.5725   79.5115    9.1802 C.3     1  UNL1        0.0173
     25 C          63.9803   92.4276   11.4477 C.3     1  UNL1        0.1205
     26 C          65.2348   92.9487   10.8115 C.ar    1  UNL1       -0.0022
     27 C          65.3009   94.3705   10.3382 C.ar    1  UNL1       -0.0003
     28 C          66.5554   94.8917    9.7020 C.ar    1  UNL1        0.0294
     29 C          67.7437   93.9909    9.5392 C.ar    1  UNL1        0.1401
     30 F          68.9982   94.5121    8.9030 F       1  UNL1       -0.2042
     31 C          67.6775   92.5691   10.0124 C.ar    1  UNL1        0.0294
     32 C          66.4231   92.0480   10.6486 C.ar    1  UNL1       -0.0003
@<TRIPOS>BOND
     1    22    23    1
     2    23    24    1
     3    23    16    1
     4    16    17    1
     5    17    18    1
     6    18    19    1
     7    19    15    1
     8    15     1    1
     9     1     2   ar
    10     2     3   ar
    11     3     4   ar
    12     4     5   ar
    13     5     6   ar
    14     5     7   ar
    15     7     8   ar
    16     8     9   ar
    17     9    10    1
    18    10    11    1
    19    11    12    1
    20    12    25    1
    21    25    26    1
    22    26    27   ar
    23    27    28   ar
    24    28    29   ar
    25    29    30    1
    26    29    31   ar
    27    31    32   ar
    28    12    13   am
    29    13    14    2
    30    19    20    1
    31    20    21    1
    32    21    16    1
    33     6     1   ar
    34    13     8    1
    35     9     4   ar
    36    32    26   ar
