@<TRIPOS>MOLECULE
*****
 35 38 0 0 0
SMALL
GASTEIGER

@<TRIPOS>ATOM
      1 N          60.0006   94.4603    0.8193 N.am    1  UNL1       -0.2533
      2 C          59.9865   93.3083    1.7797 C.2     1  UNL1        0.3092
      3 O          60.3574   91.9336    1.3075 O.2     1  UNL1       -0.2521
      4 N          59.6015   93.5306    3.2123 N.am    1  UNL1       -0.2680
      5 H          59.7572   95.3625    1.1292 H       1  UNL1        0.1578
      6 H          59.3581   94.4328    3.5222 H       1  UNL1        0.1564
      7 C          59.5875   92.3785    4.1726 C.ar    1  UNL1        0.0517
      8 C          58.2934   91.9243    4.7802 C.ar    1  UNL1        0.0162
      9 C          58.2793   90.7721    5.7406 C.ar    1  UNL1        0.0189
     10 C          59.5592   90.0741    6.0934 C.ar    1  UNL1        0.0663
     11 C          60.8533   90.5283    5.4858 C.ar    1  UNL1        0.0189
     12 C          60.8674   91.6804    4.5255 C.ar    1  UNL1        0.0162
     13 N          59.5452   88.9219    7.0537 N.ar    1  UNL1       -0.2782
     14 C          59.0080   87.5492    6.7761 C.ar    1  UNL1        0.1843
     15 N          59.1966   86.7191    8.0111 N.ar    1  UNL1       -0.2111
     16 C          59.8504   87.5787    9.0520 C.ar    1  UNL1        0.1669
     17 CL         60.2233   87.1519   10.4408 Cl      1  UNL1       -0.0588
     18 C          60.0658   88.9402    8.4603 C.ar    1  UNL1        0.1526
     19 CL         60.6920   90.1138    9.1536 Cl      1  UNL1       -0.0602
     20 N          59.4636   94.3050   -1.7946 N.ar    1  UNL1       -0.2162
     21 N          60.2683   94.0180   -3.0275 N.ar    1  UNL1       -0.1683
     22 C          61.6876   93.7735   -2.6082 C.ar    1  UNL1        0.0810
     23 C          61.7601   93.9095   -1.1161 C.ar    1  UNL1        0.0509
     24 C          60.3855   94.2380   -0.6133 C.ar    1  UNL1        0.1380
     25 C          53.5884   95.5098   -1.6191 C.3     1  UNL1        0.0310
     26 C          55.0572   95.2086   -1.6630 C.ar    1  UNL1       -0.0218
     27 C          56.0552   96.3160   -1.4966 C.ar    1  UNL1       -0.0027
     28 C          57.5240   96.0148   -1.5405 C.ar    1  UNL1        0.0189
     29 C          57.9948   94.6062   -1.7507 C.ar    1  UNL1        0.0842
     30 C          56.9968   93.4989   -1.9171 C.ar    1  UNL1        0.0189
     31 C          55.5280   93.8001   -1.8732 C.ar    1  UNL1       -0.0027
     32 C          62.8333   93.4500   -3.5207 C.3     1  UNL1        0.0372
     33 C          63.6535   93.0232   -2.3396 C.3     1  UNL1        0.0060
     34 C          62.0131   93.8767   -4.7018 C.3     1  UNL1        0.0060
     35 C          63.9790   93.1264   -4.4332 C.3     1  UNL1        0.0060
@<TRIPOS>BOND
     1    25    26    1
     2    26    27   ar
     3    27    28   ar
     4    28    29   ar
     5    29    20    1
     6    20    21   ar
     7    21    22   ar
     8    22    32    1
     9    32    33    1
    10    32    34    1
    11    32    35    1
    12    22    23   ar
    13    23    24   ar
    14    24     1    1
    15     1     2   am
    16     2     3    2
    17     2     4   am
    18     4     7    1
    19     7     8   ar
    20     8     9   ar
    21     9    10   ar
    22    10    13    1
    23    13    14   ar
    24    14    15   ar
    25    15    16   ar
    26    16    17    1
    27    16    18   ar
    28    18    19    1
    29    10    11   ar
    30    11    12   ar
    31    29    30   ar
    32    30    31   ar
    33    31    26   ar
    34    24    20   ar
    35    12     7   ar
    36    18    13   ar
    37     1     5    1
    38     4     6    1
@<TRIPOS>MOLECULE
*****
 35 38 0 0 0
SMALL
GASTEIGER

@<TRIPOS>ATOM
      1 N          60.2876   94.6496    1.4047 N.am    1  UNL1       -0.2533
      2 C          60.3793   93.5332    2.4023 C.2     1  UNL1        0.3092
      3 O          61.6308   92.7115    2.4955 O.2     1  UNL1       -0.2521
      4 N          59.2196   93.2385    3.3068 N.am    1  UNL1       -0.2680
      5 H          59.4663   95.1888    1.3436 H       1  UNL1        0.1578
      6 H          58.3982   93.7777    3.2457 H       1  UNL1        0.1564
      7 C          59.3114   92.1221    4.3044 C.ar    1  UNL1        0.0517
      8 C          58.0658   91.5821    4.9424 C.ar    1  UNL1        0.0162
      9 C          58.1576   90.4657    5.9400 C.ar    1  UNL1        0.0189
     10 C          59.4948   89.8893    6.2997 C.ar    1  UNL1        0.0663
     11 C          60.7404   90.4293    5.6617 C.ar    1  UNL1        0.0189
     12 C          60.6486   91.5456    4.6641 C.ar    1  UNL1        0.0162
     13 N          59.5866   88.7729    7.2973 N.ar    1  UNL1       -0.2782
     14 C          59.0904   87.3711    7.1000 C.ar    1  UNL1        0.1843
     15 N          59.3878   86.5942    8.3482 N.ar    1  UNL1       -0.2111
     16 C          60.0678   87.5157    9.3169 C.ar    1  UNL1        0.1669
     17 CL         60.5417   87.1542   10.6934 Cl      1  UNL1       -0.0588
     18 C          60.1907   88.8623    8.6674 C.ar    1  UNL1        0.1526
     19 CL         60.8090   90.0837    9.2804 Cl      1  UNL1       -0.0602
     20 N          61.5174   94.6482   -0.9686 N.ar    1  UNL1       -0.2162
     21 N          62.8540   95.1078   -1.4709 N.ar    1  UNL1       -0.1683
     22 C          63.6100   95.6880   -0.3125 C.ar    1  UNL1        0.0810
     23 C          62.7406   95.5870    0.9057 C.ar    1  UNL1        0.0509
     24 C          61.4474   94.9443    0.5002 C.ar    1  UNL1        0.1380
     25 C          57.2080   92.0765   -4.2573 C.3     1  UNL1        0.0310
     26 C          58.2854   92.7194   -3.4352 C.ar    1  UNL1       -0.0218
     27 C          59.1646   93.7722   -4.0422 C.ar    1  UNL1       -0.0027
     28 C          60.2420   94.4151   -3.2200 C.ar    1  UNL1        0.0189
     29 C          60.4401   94.0052   -1.7908 C.ar    1  UNL1        0.0842
     30 C          59.5608   92.9525   -1.1838 C.ar    1  UNL1        0.0189
     31 C          58.4835   92.3096   -2.0059 C.ar    1  UNL1       -0.0027
     32 C          64.9926   96.2675   -0.3634 C.3     1  UNL1        0.0372
     33 C          65.0073   96.1015   -1.8541 C.3     1  UNL1        0.0060
     34 C          64.9779   96.4336    1.1273 C.3     1  UNL1        0.0060
     35 C          66.3752   96.8471   -0.4143 C.3     1  UNL1        0.0060
@<TRIPOS>BOND
     1    25    26    1
     2    26    27   ar
     3    27    28   ar
     4    28    29   ar
     5    29    20    1
     6    20    21   ar
     7    21    22   ar
     8    22    32    1
     9    32    33    1
    10    32    34    1
    11    32    35    1
    12    22    23   ar
    13    23    24   ar
    14    24     1    1
    15     1     2   am
    16     2     3    2
    17     2     4   am
    18     4     7    1
    19     7     8   ar
    20     8     9   ar
    21     9    10   ar
    22    10    13    1
    23    13    14   ar
    24    14    15   ar
    25    15    16   ar
    26    16    17    1
    27    16    18   ar
    28    18    19    1
    29    10    11   ar
    30    11    12   ar
    31    29    30   ar
    32    30    31   ar
    33    31    26   ar
    34    24    20   ar
    35    12     7   ar
    36    18    13   ar
    37     1     5    1
    38     4     6    1
@<TRIPOS>MOLECULE
*****
 35 38 0 0 0
SMALL
GASTEIGER

@<TRIPOS>ATOM
      1 N          63.0206   86.3441   14.5485 N.am    1  UNL1       -0.2533
      2 C          63.5859   87.5184   13.8061 C.2     1  UNL1        0.3092
      3 O          63.9367   87.3891   12.3533 O.2     1  UNL1       -0.2521
      4 N          63.8006   88.8221   14.5162 N.am    1  UNL1       -0.2680
      5 H          62.7904   86.4290   15.5019 H       1  UNL1        0.1578
      6 H          63.5705   88.9070   15.4697 H       1  UNL1        0.1564
      7 C          64.3660   89.9964   13.7737 C.ar    1  UNL1        0.0517
      8 C          63.7255   90.4558   12.4975 C.ar    1  UNL1        0.0162
      9 C          64.2909   91.6301   11.7550 C.ar    1  UNL1        0.0189
     10 C          65.4967   92.3450   12.2886 C.ar    1  UNL1        0.0663
     11 C          66.1372   91.8856   13.5648 C.ar    1  UNL1        0.0189
     12 C          65.5719   90.7113   14.3073 C.ar    1  UNL1        0.0162
     13 N          66.0621   93.5194   11.5461 N.ar    1  UNL1       -0.2782
     14 C          65.8936   94.9625   11.9190 C.ar    1  UNL1        0.1843
     15 N          66.6226   95.7917   10.9037 N.ar    1  UNL1       -0.2111
     16 C          67.2416   94.8611    9.9032 C.ar    1  UNL1        0.1669
     17 CL         68.0628   95.2642    8.7145 Cl      1  UNL1       -0.0588
     18 C          66.8952   93.4567   10.3003 C.ar    1  UNL1        0.1526
     19 CL         67.3091   92.2088    9.5783 Cl      1  UNL1       -0.0602
     20 N          62.2479   84.8706   12.4564 N.ar    1  UNL1       -0.2162
     21 N          62.2087   83.4029   12.1495 N.ar    1  UNL1       -0.1683
     22 C          62.7424   82.6656   13.3417 C.ar    1  UNL1        0.0810
     23 C          63.1115   83.6776   14.3855 C.ar    1  UNL1        0.0509
     24 C          62.8059   85.0404   13.8384 C.ar    1  UNL1        0.1380
     25 C          60.4830   89.2870    8.7985 C.3     1  UNL1        0.0310
     26 C          60.9242   88.1829    9.7129 C.ar    1  UNL1       -0.0218
     27 C          60.3671   88.0924   11.1027 C.ar    1  UNL1       -0.0027
     28 C          60.8083   86.9883   12.0171 C.ar    1  UNL1        0.0189
     29 C          61.8067   85.9747   11.5419 C.ar    1  UNL1        0.0842
     30 C          62.3638   86.0653   10.1522 C.ar    1  UNL1        0.0189
     31 C          61.9226   87.1694    9.2377 C.ar    1  UNL1       -0.0027
     32 C          62.8824   81.1775   13.4680 C.3     1  UNL1        0.0372
     33 C          61.4643   81.0848   13.9482 C.3     1  UNL1        0.0060
     34 C          64.3004   81.2701   12.9879 C.3     1  UNL1        0.0060
     35 C          63.0224   79.6894   13.5943 C.3     1  UNL1        0.0060
@<TRIPOS>BOND
     1    25    26    1
     2    26    27   ar
     3    27    28   ar
     4    28    29   ar
     5    29    20    1
     6    20    21   ar
     7    21    22   ar
     8    22    32    1
     9    32    33    1
    10    32    34    1
    11    32    35    1
    12    22    23   ar
    13    23    24   ar
    14    24     1    1
    15     1     2   am
    16     2     3    2
    17     2     4   am
    18     4     7    1
    19     7     8   ar
    20     8     9   ar
    21     9    10   ar
    22    10    13    1
    23    13    14   ar
    24    14    15   ar
    25    15    16   ar
    26    16    17    1
    27    16    18   ar
    28    18    19    1
    29    10    11   ar
    30    11    12   ar
    31    29    30   ar
    32    30    31   ar
    33    31    26   ar
    34    24    20   ar
    35    12     7   ar
    36    18    13   ar
    37     1     5    1
    38     4     6    1
@<TRIPOS>MOLECULE
*****
 35 38 0 0 0
SMALL
GASTEIGER

@<TRIPOS>ATOM
      1 N          63.8360   89.3937   15.6896 N.am    1  UNL1       -0.2533
      2 C          63.7943   88.0733   14.9793 C.2     1  UNL1        0.3092
      3 O          64.5524   87.8864   13.6985 O.2     1  UNL1       -0.2521
      4 N          62.9945   86.9397   15.5496 N.am    1  UNL1       -0.2680
      5 H          63.3384   89.5163   16.5303 H       1  UNL1        0.1578
      6 H          62.4969   87.0623   16.3902 H       1  UNL1        0.1564
      7 C          62.9529   85.6193   14.8392 C.ar    1  UNL1        0.0517
      8 C          63.4666   85.5069   13.4344 C.ar    1  UNL1        0.0162
      9 C          63.4250   84.1865   12.7239 C.ar    1  UNL1        0.0189
     10 C          62.8697   82.9784   13.4182 C.ar    1  UNL1        0.0663
     11 C          62.3559   83.0908   14.8230 C.ar    1  UNL1        0.0189
     12 C          62.3976   84.4112   15.5334 C.ar    1  UNL1        0.0162
     13 N          62.8280   81.6580   12.7077 N.ar    1  UNL1       -0.2782
     14 C          62.4870   80.3345   13.3260 C.ar    1  UNL1        0.1843
     15 N          62.5683   79.2878   12.2546 N.ar    1  UNL1       -0.2111
     16 C          62.9596   79.9643   10.9743 C.ar    1  UNL1        0.1669
     17 CL         63.1559   79.2937    9.6470 Cl      1  UNL1       -0.0588
     18 C          63.1201   81.4292   11.2544 C.ar    1  UNL1        0.1526
     19 CL         63.5051   82.4807   10.2563 Cl      1  UNL1       -0.0602
     20 N          64.4445   91.1489   13.7677 N.ar    1  UNL1       -0.2162
     21 N          65.4577   92.2442   13.6136 N.ar    1  UNL1       -0.1683
     22 C          66.2752   92.2995   14.8700 C.ar    1  UNL1        0.0810
     23 C          65.7672   91.2384   15.8007 C.ar    1  UNL1        0.0509
     24 C          64.6357   90.5274   15.1193 C.ar    1  UNL1        0.1380
     25 C          60.3459   89.5372    9.6928 C.3     1  UNL1        0.0310
     26 C          61.3706   89.9402   10.7115 C.ar    1  UNL1       -0.0218
     27 C          62.6556   90.5767   10.2716 C.ar    1  UNL1       -0.0027
     28 C          63.6802   90.9796   11.2903 C.ar    1  UNL1        0.0189
     29 C          63.4198   90.7460   12.7489 C.ar    1  UNL1        0.0842
     30 C          62.1348   90.1095   13.1888 C.ar    1  UNL1        0.0189
     31 C          61.1102   89.7066   12.1701 C.ar    1  UNL1       -0.0027
     32 C          67.4028   93.2492   15.1472 C.3     1  UNL1        0.0372
     33 C          67.9554   92.2960   16.1650 C.3     1  UNL1        0.0060
     34 C          66.8501   94.2023   14.1293 C.3     1  UNL1        0.0060
     35 C          68.5303   94.1988   15.4243 C.3     1  UNL1        0.0060
@<TRIPOS>BOND
     1    25    26    1
     2    26    27   ar
     3    27    28   ar
     4    28    29   ar
     5    29    20    1
     6    20    21   ar
     7    21    22   ar
     8    22    32    1
     9    32    33    1
    10    32    34    1
    11    32    35    1
    12    22    23   ar
    13    23    24   ar
    14    24     1    1
    15     1     2   am
    16     2     3    2
    17     2     4   am
    18     4     7    1
    19     7     8   ar
    20     8     9   ar
    21     9    10   ar
    22    10    13    1
    23    13    14   ar
    24    14    15   ar
    25    15    16   ar
    26    16    17    1
    27    16    18   ar
    28    18    19    1
    29    10    11   ar
    30    11    12   ar
    31    29    30   ar
    32    30    31   ar
    33    31    26   ar
    34    24    20   ar
    35    12     7   ar
    36    18    13   ar
    37     1     5    1
    38     4     6    1
@<TRIPOS>MOLECULE
*****
 35 38 0 0 0
SMALL
GASTEIGER

@<TRIPOS>ATOM
      1 N          72.5759   74.0174   13.9124 N.am    1  UNL1       -0.2533
      2 C          72.3684   75.1778   12.9849 C.2     1  UNL1        0.3092
      3 O          71.2650   75.1382   11.9694 O.2     1  UNL1       -0.2521
      4 N          73.2641   76.3777   13.0726 N.am    1  UNL1       -0.2680
      5 H          73.3001   74.0434   14.5789 H       1  UNL1        0.1578
      6 H          73.9883   76.4037   13.7390 H       1  UNL1        0.1564
      7 C          73.0565   77.5381   12.1450 C.ar    1  UNL1        0.0517
      8 C          73.6330   77.5040   10.7606 C.ar    1  UNL1        0.0162
      9 C          73.4254   78.6643    9.8330 C.ar    1  UNL1        0.0189
     10 C          72.6414   79.8588   10.2896 C.ar    1  UNL1        0.0663
     11 C          72.0650   79.8929   11.6741 C.ar    1  UNL1        0.0189
     12 C          72.2726   78.7325   12.6017 C.ar    1  UNL1        0.0162
     13 N          72.4338   81.0191    9.3620 N.ar    1  UNL1       -0.2782
     14 C          72.5181   82.4702    9.7325 C.ar    1  UNL1        0.1843
     15 N          72.2419   83.2800    8.5005 N.ar    1  UNL1       -0.2111
     16 C          71.9868   82.3294    7.3686 C.ar    1  UNL1        0.1669
     17 CL         71.6689   82.7094    5.9527 Cl      1  UNL1       -0.0588
     18 C          72.1054   80.9321    7.9010 C.ar    1  UNL1        0.1526
     19 CL         71.9270   79.6695    7.1111 Cl      1  UNL1       -0.0602
     20 N          71.1391   72.0344   14.9840 N.ar    1  UNL1       -0.2162
     21 N          70.2927   70.9229   14.4380 N.ar    1  UNL1       -0.1683
     22 C          70.3106   71.0190   12.9412 C.ar    1  UNL1        0.0810
     23 C          71.1681   72.1899   12.5621 C.ar    1  UNL1        0.0509
     24 C          71.6801   72.8175   13.8247 C.ar    1  UNL1        0.1380
     25 C          72.1782   73.1520   20.7867 C.3     1  UNL1        0.0310
     26 C          71.9184   72.8726   19.3361 C.ar    1  UNL1       -0.0218
     27 C          72.8186   73.4553   18.2872 C.ar    1  UNL1       -0.0027
     28 C          72.5588   73.1759   16.8365 C.ar    1  UNL1        0.0189
     29 C          71.3989   72.3138   16.4347 C.ar    1  UNL1        0.0842
     30 C          70.4988   71.7312   17.4836 C.ar    1  UNL1        0.0189
     31 C          70.7586   72.0106   18.9343 C.ar    1  UNL1       -0.0027
     32 C          69.5965   70.1047   11.9904 C.3     1  UNL1        0.0372
     33 C          69.6397   71.1691   10.9344 C.3     1  UNL1        0.0060
     34 C          69.5532   69.0403   13.0464 C.3     1  UNL1        0.0060
     35 C          68.8823   69.1904   11.0396 C.3     1  UNL1        0.0060
@<TRIPOS>BOND
     1    25    26    1
     2    26    27   ar
     3    27    28   ar
     4    28    29   ar
     5    29    20    1
     6    20    21   ar
     7    21    22   ar
     8    22    32    1
     9    32    33    1
    10    32    34    1
    11    32    35    1
    12    22    23   ar
    13    23    24   ar
    14    24     1    1
    15     1     2   am
    16     2     3    2
    17     2     4   am
    18     4     7    1
    19     7     8   ar
    20     8     9   ar
    21     9    10   ar
    22    10    13    1
    23    13    14   ar
    24    14    15   ar
    25    15    16   ar
    26    16    17    1
    27    16    18   ar
    28    18    19    1
    29    10    11   ar
    30    11    12   ar
    31    29    30   ar
    32    30    31   ar
    33    31    26   ar
    34    24    20   ar
    35    12     7   ar
    36    18    13   ar
    37     1     5    1
    38     4     6    1
@<TRIPOS>MOLECULE
*****
 35 38 0 0 0
SMALL
GASTEIGER

@<TRIPOS>ATOM
      1 N          64.1548   89.8561   14.1254 N.am    1  UNL1       -0.2533
      2 C          63.9355   88.4368   13.6927 C.2     1  UNL1        0.3092
      3 O          63.9147   88.0925   12.2328 O.2     1  UNL1       -0.2521
      4 N          63.7370   87.3616   14.7196 N.am    1  UNL1       -0.2680
      5 H          64.1685   90.0820   15.0835 H       1  UNL1        0.1578
      6 H          63.7507   87.5875   15.6778 H       1  UNL1        0.1564
      7 C          63.5178   85.9423   14.2868 C.ar    1  UNL1        0.0517
      8 C          63.8834   84.8134   15.2043 C.ar    1  UNL1        0.0162
      9 C          63.6641   83.3940   14.7715 C.ar    1  UNL1        0.0189
     10 C          63.0792   83.1035   13.4212 C.ar    1  UNL1        0.0663
     11 C          62.7135   84.2324   12.5036 C.ar    1  UNL1        0.0189
     12 C          62.9328   85.6518   12.9365 C.ar    1  UNL1        0.0162
     13 N          62.8599   81.6842   12.9883 N.ar    1  UNL1       -0.2782
     14 C          62.3777   80.5615   13.8585 C.ar    1  UNL1        0.1843
     15 N          62.3041   79.3218   13.0173 N.ar    1  UNL1       -0.2111
     16 C          62.7408   79.6782   11.6272 C.ar    1  UNL1        0.1669
     17 CL         62.8201   78.7395   10.4600 Cl      1  UNL1       -0.0588
     18 C          63.0843   81.1383   11.6093 C.ar    1  UNL1        0.1526
     19 CL         63.5674   81.9159   10.4211 Cl      1  UNL1       -0.0602
     20 N          63.5997   91.0685   11.8088 N.ar    1  UNL1       -0.2162
     21 N          64.1210   92.2800   11.0942 N.ar    1  UNL1       -0.1683
     22 C          65.1966   92.8914   11.9422 C.ar    1  UNL1        0.0810
     23 C          65.3403   92.0578   13.1809 C.ar    1  UNL1        0.0509
     24 C          64.3533   90.9312   13.0984 C.ar    1  UNL1        0.1380
     25 C          59.2622   87.4137    9.8521 C.3     1  UNL1        0.0310
     26 C          60.3466   88.3274   10.3413 C.ar    1  UNL1       -0.0218
     27 C          60.1371   89.1426   11.5828 C.ar    1  UNL1       -0.0027
     28 C          61.2215   90.0563   12.0720 C.ar    1  UNL1        0.0189
     29 C          62.5154   90.1548   11.3196 C.ar    1  UNL1        0.0842
     30 C          62.7249   89.3396   10.0781 C.ar    1  UNL1        0.0189
     31 C          61.6405   88.4259    9.5889 C.ar    1  UNL1       -0.0027
     32 C          65.9895   94.1206   11.6098 C.3     1  UNL1        0.0372
     33 C          65.5560   94.0129   10.1778 C.3     1  UNL1        0.0060
     34 C          66.4229   94.2282   13.0417 C.3     1  UNL1        0.0060
     35 C          66.7823   95.3498   11.2774 C.3     1  UNL1        0.0060
@<TRIPOS>BOND
     1    25    26    1
     2    26    27   ar
     3    27    28   ar
     4    28    29   ar
     5    29    20    1
     6    20    21   ar
     7    21    22   ar
     8    22    32    1
     9    32    33    1
    10    32    34    1
    11    32    35    1
    12    22    23   ar
    13    23    24   ar
    14    24     1    1
    15     1     2   am
    16     2     3    2
    17     2     4   am
    18     4     7    1
    19     7     8   ar
    20     8     9   ar
    21     9    10   ar
    22    10    13    1
    23    13    14   ar
    24    14    15   ar
    25    15    16   ar
    26    16    17    1
    27    16    18   ar
    28    18    19    1
    29    10    11   ar
    30    11    12   ar
    31    29    30   ar
    32    30    31   ar
    33    31    26   ar
    34    24    20   ar
    35    12     7   ar
    36    18    13   ar
    37     1     5    1
    38     4     6    1
@<TRIPOS>MOLECULE
*****
 35 38 0 0 0
SMALL
GASTEIGER

@<TRIPOS>ATOM
      1 N          59.6744   94.2456    1.4566 N.am    1  UNL1       -0.2533
      2 C          59.8973   93.2110    2.5194 C.2     1  UNL1        0.3092
      3 O          61.2791   92.6880    2.7790 O.2     1  UNL1       -0.2521
      4 N          58.7386   92.6992    3.3228 N.am    1  UNL1       -0.2680
      5 H          58.7675   94.5889    1.2863 H       1  UNL1        0.1578
      6 H          57.8317   93.0425    3.1525 H       1  UNL1        0.1564
      7 C          58.9616   91.6646    4.3857 C.ar    1  UNL1        0.0517
      8 C          57.7929   91.0902    5.1302 C.ar    1  UNL1        0.0162
      9 C          58.0159   90.0555    6.1931 C.ar    1  UNL1        0.0189
     10 C          59.4075   89.5952    6.5115 C.ar    1  UNL1        0.0663
     11 C          60.5761   90.1695    5.7670 C.ar    1  UNL1        0.0189
     12 C          60.3532   91.2042    4.7041 C.ar    1  UNL1        0.0162
     13 N          59.6305   88.5605    7.5744 N.ar    1  UNL1       -0.2782
     14 C          59.2816   87.1050    7.4750 C.ar    1  UNL1        0.1843
     15 N          59.6770   86.4446    8.7624 N.ar    1  UNL1       -0.2111
     16 C          60.2702   87.4919    9.6575 C.ar    1  UNL1        0.1669
     17 CL         60.7993   87.2705   11.0435 Cl      1  UNL1       -0.0588
     18 C          60.2414   88.7997    8.9232 C.ar    1  UNL1        0.1526
     19 CL         60.7367   90.1155    9.4460 Cl      1  UNL1       -0.0602
     20 N          60.9043   94.8312   -0.8433 N.ar    1  UNL1       -0.2162
     21 N          62.2393   95.4046   -1.2161 N.ar    1  UNL1       -0.1683
     22 C          62.9932   95.6852    0.0500 C.ar    1  UNL1        0.0810
     23 C          62.1241   95.2852    1.2053 C.ar    1  UNL1        0.0509
     24 C          60.8332   94.7574    0.6532 C.ar    1  UNL1        0.1380
     25 C          56.6042   93.1313   -4.6667 C.3     1  UNL1        0.0310
     26 C          57.6792   93.5562   -3.7109 C.ar    1  UNL1       -0.0218
     27 C          58.4167   92.5275   -2.9060 C.ar    1  UNL1       -0.0027
     28 C          59.4918   92.9525   -1.9502 C.ar    1  UNL1        0.0189
     29 C          59.8293   94.4062   -1.7992 C.ar    1  UNL1        0.0842
     30 C          59.0918   95.4349   -2.6040 C.ar    1  UNL1        0.0189
     31 C          58.0167   95.0099   -3.5599 C.ar    1  UNL1       -0.0027
     32 C          64.3738   96.2641    0.1442 C.3     1  UNL1        0.0372
     33 C          64.0438   96.8314    1.4930 C.3     1  UNL1        0.0060
     34 C          64.7037   95.6968   -1.2046 C.3     1  UNL1        0.0060
     35 C          65.7543   96.8430    0.2384 C.3     1  UNL1        0.0060
@<TRIPOS>BOND
     1    25    26    1
     2    26    27   ar
     3    27    28   ar
     4    28    29   ar
     5    29    20    1
     6    20    21   ar
     7    21    22   ar
     8    22    32    1
     9    32    33    1
    10    32    34    1
    11    32    35    1
    12    22    23   ar
    13    23    24   ar
    14    24     1    1
    15     1     2   am
    16     2     3    2
    17     2     4   am
    18     4     7    1
    19     7     8   ar
    20     8     9   ar
    21     9    10   ar
    22    10    13    1
    23    13    14   ar
    24    14    15   ar
    25    15    16   ar
    26    16    17    1
    27    16    18   ar
    28    18    19    1
    29    10    11   ar
    30    11    12   ar
    31    29    30   ar
    32    30    31   ar
    33    31    26   ar
    34    24    20   ar
    35    12     7   ar
    36    18    13   ar
    37     1     5    1
    38     4     6    1
@<TRIPOS>MOLECULE
*****
 35 38 0 0 0
SMALL
GASTEIGER

@<TRIPOS>ATOM
      1 N          59.6706   94.4099    0.6371 N.am    1  UNL1       -0.2533
      2 C          59.6376   93.2732    1.6152 C.2     1  UNL1        0.3092
      3 O          59.5746   91.8588    1.1196 O.2     1  UNL1       -0.2521
      4 N          59.6675   93.5508    3.0890 N.am    1  UNL1       -0.2680
      5 H          59.7119   95.3381    0.9624 H       1  UNL1        0.1578
      6 H          59.7088   94.4791    3.4144 H       1  UNL1        0.1564
      7 C          59.6345   92.4140    4.0671 C.ar    1  UNL1        0.0517
      8 C          60.9052   91.7119    4.4442 C.ar    1  UNL1        0.0162
      9 C          60.8722   90.5751    5.4223 C.ar    1  UNL1        0.0189
     10 C          59.5685   90.1405    6.0234 C.ar    1  UNL1        0.0663
     11 C          58.2977   90.8427    5.6464 C.ar    1  UNL1        0.0189
     12 C          58.3308   91.9794    4.6682 C.ar    1  UNL1        0.0162
     13 N          59.5354   89.0038    7.0015 N.ar    1  UNL1       -0.2782
     14 C          58.9342   87.6507    6.7609 C.ar    1  UNL1        0.1843
     15 N          59.1250   86.8312    8.0026 N.ar    1  UNL1       -0.2111
     16 C          59.8442   87.6777    9.0107 C.ar    1  UNL1        0.1669
     17 CL         60.2402   87.2557   10.3946 Cl      1  UNL1       -0.0588
     18 C          60.0978   89.0205    8.3920 C.ar    1  UNL1        0.1526
     19 CL         60.7920   90.1768    9.0485 Cl      1  UNL1       -0.0602
     20 N          60.7620   94.3757   -1.8027 N.ar    1  UNL1       -0.2162
     21 N          60.2984   93.9564   -3.1662 N.ar    1  UNL1       -0.1683
     22 C          58.8905   93.4538   -3.0429 C.ar    1  UNL1        0.0810
     23 C          58.4840   93.5625   -1.6032 C.ar    1  UNL1        0.0509
     24 C          59.6406   94.1323   -0.8367 C.ar    1  UNL1        0.1380
     25 C          66.1551   96.6307   -0.4500 C.3     1  UNL1        0.0310
     26 C          64.8069   96.0669   -0.7882 C.ar    1  UNL1       -0.0218
     27 C          63.8571   96.8545   -1.6412 C.ar    1  UNL1       -0.0027
     28 C          62.5088   96.2908   -1.9793 C.ar    1  UNL1        0.0189
     29 C          62.1103   94.9394   -1.4645 C.ar    1  UNL1        0.0842
     30 C          63.0601   94.1519   -0.6115 C.ar    1  UNL1        0.0189
     31 C          64.4084   94.7156   -0.2734 C.ar    1  UNL1       -0.0027
     32 C          58.0387   92.9339   -4.1628 C.3     1  UNL1        0.0372
     33 C          57.4512   91.9080   -3.2396 C.3     1  UNL1        0.0060
     34 C          58.6263   93.9598   -5.0860 C.3     1  UNL1        0.0060
     35 C          57.1870   92.4139   -5.2827 C.3     1  UNL1        0.0060
@<TRIPOS>BOND
     1    25    26    1
     2    26    27   ar
     3    27    28   ar
     4    28    29   ar
     5    29    20    1
     6    20    21   ar
     7    21    22   ar
     8    22    32    1
     9    32    33    1
    10    32    34    1
    11    32    35    1
    12    22    23   ar
    13    23    24   ar
    14    24     1    1
    15     1     2   am
    16     2     3    2
    17     2     4   am
    18     4     7    1
    19     7     8   ar
    20     8     9   ar
    21     9    10   ar
    22    10    13    1
    23    13    14   ar
    24    14    15   ar
    25    15    16   ar
    26    16    17    1
    27    16    18   ar
    28    18    19    1
    29    10    11   ar
    30    11    12   ar
    31    29    30   ar
    32    30    31   ar
    33    31    26   ar
    34    24    20   ar
    35    12     7   ar
    36    18    13   ar
    37     1     5    1
    38     4     6    1
@<TRIPOS>MOLECULE
*****
 35 38 0 0 0
SMALL
GASTEIGER

@<TRIPOS>ATOM
      1 N          60.4535   89.0237   11.0227 N.am    1  UNL1       -0.2533
      2 C          61.7146   89.6233   11.5702 C.2     1  UNL1        0.3092
      3 O          62.7808   90.1113   10.6347 O.2     1  UNL1       -0.2521
      4 N          61.9096   89.7352   13.0533 N.am    1  UNL1       -0.2680
      5 H          59.7537   88.7034   11.6367 H       1  UNL1        0.1578
      6 H          61.2098   89.4150   13.6673 H       1  UNL1        0.1564
      7 C          63.1708   90.3349   13.6008 C.ar    1  UNL1        0.0517
      8 C          64.1305   91.0312   12.6821 C.ar    1  UNL1        0.0162
      9 C          65.3917   91.6310   13.2296 C.ar    1  UNL1        0.0189
     10 C          65.6932   91.5344   14.6958 C.ar    1  UNL1        0.0663
     11 C          64.7334   90.8381   15.6145 C.ar    1  UNL1        0.0189
     12 C          63.4723   90.2384   15.0670 C.ar    1  UNL1        0.0162
     13 N          66.9543   92.1341   15.2432 N.ar    1  UNL1       -0.2782
     14 C          67.9386   91.4478   16.1434 C.ar    1  UNL1        0.1843
     15 N          69.0452   92.4150   16.4432 N.ar    1  UNL1       -0.2111
     16 C          68.7450   93.6991   15.7283 C.ar    1  UNL1        0.1669
     17 CL         69.5888   94.9390   15.7511 Cl      1  UNL1       -0.0588
     18 C          67.4527   93.5255   14.9867 C.ar    1  UNL1        0.1526
     19 CL         66.7774   94.5614   14.1377 Cl      1  UNL1       -0.0602
     20 N          60.7570   87.7988    8.6663 N.ar    1  UNL1       -0.2162
     21 N          60.3373   88.0925    7.2565 N.ar    1  UNL1       -0.1683
     22 C          59.5793   89.3869    7.2585 C.ar    1  UNL1        0.0810
     23 C          59.5306   89.8933    8.6696 C.ar    1  UNL1        0.0509
     24 C          60.2584   88.9118    9.5396 C.ar    1  UNL1        0.1380
     25 C          63.8813   83.0127   10.4916 C.3     1  UNL1        0.0310
     26 C          63.1002   84.2093   10.0352 C.ar    1  UNL1       -0.0218
     27 C          63.1856   84.6606    8.6073 C.ar    1  UNL1       -0.0027
     28 C          62.4045   85.8572    8.1510 C.ar    1  UNL1        0.0189
     29 C          61.5381   86.6023    9.1226 C.ar    1  UNL1        0.0842
     30 C          61.4527   86.1509   10.5505 C.ar    1  UNL1        0.0189
     31 C          62.2338   84.9544   11.0068 C.ar    1  UNL1       -0.0027
     32 C          58.9761   90.0573    6.0599 C.3     1  UNL1        0.0372
     33 C          60.3390   90.5103    5.6273 C.3     1  UNL1        0.0060
     34 C          57.6131   89.6043    6.4925 C.3     1  UNL1        0.0060
     35 C          58.3728   90.7276    4.8613 C.3     1  UNL1        0.0060
@<TRIPOS>BOND
     1    25    26    1
     2    26    27   ar
     3    27    28   ar
     4    28    29   ar
     5    29    20    1
     6    20    21   ar
     7    21    22   ar
     8    22    32    1
     9    32    33    1
    10    32    34    1
    11    32    35    1
    12    22    23   ar
    13    23    24   ar
    14    24     1    1
    15     1     2   am
    16     2     3    2
    17     2     4   am
    18     4     7    1
    19     7     8   ar
    20     8     9   ar
    21     9    10   ar
    22    10    13    1
    23    13    14   ar
    24    14    15   ar
    25    15    16   ar
    26    16    17    1
    27    16    18   ar
    28    18    19    1
    29    10    11   ar
    30    11    12   ar
    31    29    30   ar
    32    30    31   ar
    33    31    26   ar
    34    24    20   ar
    35    12     7   ar
    36    18    13   ar
    37     1     5    1
    38     4     6    1
