@<TRIPOS>MOLECULE
*****
 30 32 0 0 0
SMALL
GASTEIGER

@<TRIPOS>ATOM
      1 C          63.0348   88.9487   12.0519 C.ar    1  UNL1        0.0202
      2 C          62.1433   89.1357   10.8602 C.ar    1  UNL1        0.0760
      3 N          61.6564   87.7840   10.4291 N.ar    1  UNL1       -0.3240
      4 C          60.7398   87.5037    9.2752 C.3     1  UNL1        0.1305
      5 C          62.2470   86.7617   11.3544 C.ar    1  UNL1        0.0603
      6 C          62.1190   85.2683   11.4132 C.ar    1  UNL1        0.0240
      7 C          62.8430   84.4949   12.4750 C.ar    1  UNL1        0.0837
      8 C          63.6950   85.2147   13.4780 C.ar    1  UNL1        0.1446
      9 F          64.4190   84.4412   14.5399 F       1  UNL1       -0.2040
     10 C          63.8229   86.7081   13.4192 C.ar    1  UNL1        0.0313
     11 C          63.0989   87.4816   12.3574 C.ar    1  UNL1        0.0195
     12 C          65.1465   92.2160   14.3138 C.ar    1  UNL1        0.2249
     13 C          64.6912   90.9802   15.0318 C.ar    1  UNL1        0.0577
     14 C          63.9873   89.8912   14.2778 C.ar    1  UNL1        0.0064
     15 C          63.7387   90.0378   12.8059 C.ar    1  UNL1        0.0209
     16 C          64.1941   91.2736   12.0879 C.ar    1  UNL1        0.1021
     17 N          64.8980   92.3627   12.8419 N.ar    1  UNL1       -0.2101
     18 O          65.8504   93.3051   15.0678 O.3     1  UNL1       -0.4602
     19 C          67.2624   93.6690   14.7160 C.3     1  UNL1        0.2070
     20 C          69.3751   94.4162   16.0306 C.3     1  UNL1        0.0038
     21 C          68.3773   93.3560   15.6695 C.3     1  UNL1        0.0438
     22 C          68.4944   91.9829   16.2617 C.3     1  UNL1        0.0038
     23 C          62.7151   83.0014   12.5339 C.2     1  UNL1        0.2662
     24 O          62.9549   82.1790   11.3026 O.2     1  UNL1       -0.2685
     25 N          62.3474   82.3305   13.8241 N.am    1  UNL1       -0.1851
     26 H          62.1901   82.8703   14.6323 H       1  UNL1        0.1765
     27 S          62.2195   80.8371   13.8830 S.O2    1  UNL1        0.0581
     28 C          62.0916   79.3437   13.9420 C.3     1  UNL1        0.1997
     29 O          60.7256   80.9633   13.8376 O.2     1  UNL1       -0.1543
     30 O          63.7135   80.7110   13.9285 O.2     1  UNL1       -0.1543
@<TRIPOS>BOND
     1    20    21    1
     2    21    22    1
     3    21    19    1
     4    19    18    1
     5    18    12    1
     6    12    13   ar
     7    13    14   ar
     8    14    15   ar
     9    15     1    1
    10     1     2   ar
    11     2     3   ar
    12     3     4    1
    13     3     5   ar
    14     5     6   ar
    15     6     7   ar
    16     7    23    1
    17    23    24    2
    18    23    25   am
    19    25    27    1
    20    27    28    1
    21    27    29    2
    22    27    30    2
    23     7     8   ar
    24     8     9    1
    25     8    10   ar
    26    10    11   ar
    27    15    16   ar
    28    16    17   ar
    29    17    12   ar
    30    11     1   ar
    31    11     5   ar
    32    25    26    1
@<TRIPOS>MOLECULE
*****
 30 32 0 0 0
SMALL
GASTEIGER

@<TRIPOS>ATOM
      1 C          62.8311   89.4308   11.2234 C.ar    1  UNL1        0.0202
      2 C          61.7341   89.2908   10.2100 C.ar    1  UNL1        0.0760
      3 N          61.1829   87.8996   10.3129 N.ar    1  UNL1       -0.3240
      4 C          60.0706   87.3283    9.4843 C.3     1  UNL1        0.1305
      5 C          61.9392   87.1798   11.3899 C.ar    1  UNL1        0.0603
      6 C          61.8319   85.7849   11.9309 C.ar    1  UNL1        0.0240
      7 C          62.7433   85.3364   13.0346 C.ar    1  UNL1        0.0837
      8 C          63.7620   86.2828   13.5973 C.ar    1  UNL1        0.1446
      9 F          64.6734   85.8342   14.7010 F       1  UNL1       -0.2040
     10 C          63.8692   87.6777   13.0563 C.ar    1  UNL1        0.0313
     11 C          62.9578   88.1262   11.9526 C.ar    1  UNL1        0.0195
     12 C          65.3072   93.1177   11.9488 C.ar    1  UNL1        0.2249
     13 C          64.8338   92.7928   10.5631 C.ar    1  UNL1        0.0577
     14 C          64.0085   91.5639   10.3213 C.ar    1  UNL1        0.0064
     15 C          63.6564   90.6598   11.4652 C.ar    1  UNL1        0.0209
     16 C          64.1298   90.9847   12.8510 C.ar    1  UNL1        0.1021
     17 N          64.9551   92.2137   13.0928 N.ar    1  UNL1       -0.2101
     18 O          66.1325   94.3467   12.1906 O.3     1  UNL1       -0.4602
     19 C          66.0600   95.4991   11.2332 C.3     1  UNL1        0.2070
     20 C          67.7557   94.3408    9.6417 C.3     1  UNL1        0.0038
     21 C          67.0008   95.5653   10.0667 C.3     1  UNL1        0.0438
     22 C          67.1866   96.8560    9.3253 C.3     1  UNL1        0.0038
     23 C          62.6360   83.9414   13.5756 C.2     1  UNL1        0.2662
     24 O          62.3208   83.7214   15.0255 O.2     1  UNL1       -0.2685
     25 N          62.8441   82.7664   12.6667 N.am    1  UNL1       -0.1851
     26 H          63.0510   82.9108   11.7150 H       1  UNL1        0.1765
     27 S          62.7368   81.3715   13.2076 S.O2    1  UNL1        0.0581
     28 C          62.6296   79.9765   13.7486 C.3     1  UNL1        0.1997
     29 O          61.2419   81.4925   13.2233 O.2     1  UNL1       -0.1543
     30 O          64.2318   81.2505   13.1919 O.2     1  UNL1       -0.1543
@<TRIPOS>BOND
     1    20    21    1
     2    21    22    1
     3    21    19    1
     4    19    18    1
     5    18    12    1
     6    12    13   ar
     7    13    14   ar
     8    14    15   ar
     9    15     1    1
    10     1     2   ar
    11     2     3   ar
    12     3     4    1
    13     3     5   ar
    14     5     6   ar
    15     6     7   ar
    16     7    23    1
    17    23    24    2
    18    23    25   am
    19    25    27    1
    20    27    28    1
    21    27    29    2
    22    27    30    2
    23     7     8   ar
    24     8     9    1
    25     8    10   ar
    26    10    11   ar
    27    15    16   ar
    28    16    17   ar
    29    17    12   ar
    30    11     1   ar
    31    11     5   ar
    32    25    26    1
@<TRIPOS>MOLECULE
*****
 30 32 0 0 0
SMALL
GASTEIGER

@<TRIPOS>ATOM
      1 C          62.7712   87.1331   12.2625 C.ar    1  UNL1        0.0202
      2 C          63.2011   85.9957   13.1407 C.ar    1  UNL1        0.0760
      3 N          64.1128   86.5451   14.1975 N.ar    1  UNL1       -0.3240
      4 C          64.7748   85.7560   15.2880 C.3     1  UNL1        0.1305
      5 C          64.2464   88.0221   13.9724 C.ar    1  UNL1        0.0603
      6 C          65.0160   89.0830   14.7019 C.ar    1  UNL1        0.0240
      7 C          64.9564   90.5073   14.2354 C.ar    1  UNL1        0.0837
      8 C          64.1272   90.8708   13.0395 C.ar    1  UNL1        0.1446
      9 F          64.0676   92.2952   12.5730 F       1  UNL1       -0.2040
     10 C          63.3576   89.8099   12.3100 C.ar    1  UNL1        0.0313
     11 C          63.4172   88.3855   12.7764 C.ar    1  UNL1        0.0195
     12 C          60.0252   86.8400    8.7094 C.ar    1  UNL1        0.2249
     13 C          61.3907   86.2217    8.6550 C.ar    1  UNL1        0.0577
     14 C          62.3060   86.3194    9.8394 C.ar    1  UNL1        0.0064
     15 C          61.8559   87.0354   11.0781 C.ar    1  UNL1        0.0209
     16 C          60.4902   87.6538   11.1325 C.ar    1  UNL1        0.1021
     17 N          59.5749   87.5561    9.9482 N.ar    1  UNL1       -0.2101
     18 O          59.1099   86.7423    7.5251 O.3     1  UNL1       -0.4602
     19 C          59.2137   87.7428    6.4124 C.3     1  UNL1        0.2070
     20 C          60.0524   89.6517    7.9624 C.3     1  UNL1        0.0038
     21 C          59.3286   89.2050    6.7269 C.3     1  UNL1        0.0438
     22 C          58.7197   90.2204    5.8060 C.3     1  UNL1        0.0038
     23 C          65.7260   91.5683   14.9649 C.2     1  UNL1        0.2662
     24 O          65.0794   92.3271   16.0856 O.2     1  UNL1       -0.2685
     25 N          67.1422   91.8704   14.5736 N.am    1  UNL1       -0.1851
     26 H          67.5666   91.3723   13.8381 H       1  UNL1        0.1765
     27 S          67.9118   92.9313   15.3030 S.O2    1  UNL1        0.0581
     28 C          68.6814   93.9923   16.0325 C.3     1  UNL1        0.1997
     29 O          67.3941   93.9644   14.3467 O.2     1  UNL1       -0.1543
     30 O          68.4295   91.8982   16.2594 O.2     1  UNL1       -0.1543
@<TRIPOS>BOND
     1    20    21    1
     2    21    22    1
     3    21    19    1
     4    19    18    1
     5    18    12    1
     6    12    13   ar
     7    13    14   ar
     8    14    15   ar
     9    15     1    1
    10     1     2   ar
    11     2     3   ar
    12     3     4    1
    13     3     5   ar
    14     5     6   ar
    15     6     7   ar
    16     7    23    1
    17    23    24    2
    18    23    25   am
    19    25    27    1
    20    27    28    1
    21    27    29    2
    22    27    30    2
    23     7     8   ar
    24     8     9    1
    25     8    10   ar
    26    10    11   ar
    27    15    16   ar
    28    16    17   ar
    29    17    12   ar
    30    11     1   ar
    31    11     5   ar
    32    25    26    1
@<TRIPOS>MOLECULE
*****
 30 32 0 0 0
SMALL
GASTEIGER

@<TRIPOS>ATOM
      1 C          59.0026   89.8236    6.3431 C.ar    1  UNL1        0.0202
      2 C          57.5539   90.1921    6.2195 C.ar    1  UNL1        0.0760
      3 N          57.4271   91.2145    5.1293 N.ar    1  UNL1       -0.3240
      4 C          56.1535   91.8602    4.6699 C.3     1  UNL1        0.1305
      5 C          58.7975   91.4778    4.5791 C.ar    1  UNL1        0.0603
      6 C          59.2845   92.3893    3.4920 C.ar    1  UNL1        0.0240
      7 C          60.7452   92.4412    3.1550 C.ar    1  UNL1        0.0837
      8 C          61.7189   91.5815    3.9052 C.ar    1  UNL1        0.1446
      9 F          63.1797   91.6334    3.5682 F       1  UNL1       -0.2040
     10 C          61.2319   90.6700    4.9924 C.ar    1  UNL1        0.0313
     11 C          59.7712   90.6182    5.3293 C.ar    1  UNL1        0.0195
     12 C          60.7385   86.8552    9.2460 C.ar    1  UNL1        0.2249
     13 C          60.0179   86.3737    8.0217 C.ar    1  UNL1        0.0577
     14 C          59.4393   87.3631    7.0541 C.ar    1  UNL1        0.0064
     15 C          59.5812   88.8341    7.3107 C.ar    1  UNL1        0.0209
     16 C          60.3019   89.3157    8.5350 C.ar    1  UNL1        0.1021
     17 N          60.8805   88.3263    9.5026 N.ar    1  UNL1       -0.2101
     18 O          61.3171   85.8658   10.2135 O.3     1  UNL1       -0.4602
     19 C          62.6614   85.2554    9.9482 C.3     1  UNL1        0.2070
     20 C          62.7106   84.0333   12.2403 C.3     1  UNL1        0.0038
     21 C          63.1608   84.1363   10.8132 C.3     1  UNL1        0.0438
     22 C          64.1104   83.1203   10.2511 C.3     1  UNL1        0.0038
     23 C          61.2322   93.3527    2.0678 C.2     1  UNL1        0.2662
     24 O          60.8045   94.7903    2.0467 O.2     1  UNL1       -0.2685
     25 N          62.1470   92.8267    1.0018 N.am    1  UNL1       -0.1851
     26 H          62.4277   91.8831    1.0156 H       1  UNL1        0.1765
     27 S          62.6340   93.7381   -0.0854 S.O2    1  UNL1        0.0581
     28 C          63.1211   94.6496   -1.1726 C.3     1  UNL1        0.1997
     29 O          63.8044   94.1296    0.7671 O.2     1  UNL1       -0.1543
     30 O          61.4636   93.3466   -0.9379 O.2     1  UNL1       -0.1543
@<TRIPOS>BOND
     1    20    21    1
     2    21    22    1
     3    21    19    1
     4    19    18    1
     5    18    12    1
     6    12    13   ar
     7    13    14   ar
     8    14    15   ar
     9    15     1    1
    10     1     2   ar
    11     2     3   ar
    12     3     4    1
    13     3     5   ar
    14     5     6   ar
    15     6     7   ar
    16     7    23    1
    17    23    24    2
    18    23    25   am
    19    25    27    1
    20    27    28    1
    21    27    29    2
    22    27    30    2
    23     7     8   ar
    24     8     9    1
    25     8    10   ar
    26    10    11   ar
    27    15    16   ar
    28    16    17   ar
    29    17    12   ar
    30    11     1   ar
    31    11     5   ar
    32    25    26    1
@<TRIPOS>MOLECULE
*****
 30 32 0 0 0
SMALL
GASTEIGER

@<TRIPOS>ATOM
      1 C          62.7770   87.9873   11.9718 C.ar    1  UNL1        0.0202
      2 C          61.7722   88.2094   10.8805 C.ar    1  UNL1        0.0760
      3 N          61.9423   89.6103   10.3720 N.ar    1  UNL1       -0.3240
      4 C          61.1428   90.2545    9.2784 C.3     1  UNL1        0.1305
      5 C          63.0522   90.2540   11.1490 C.ar    1  UNL1        0.0603
      6 C          63.6598   91.6239   11.0839 C.ar    1  UNL1        0.0240
      7 C          64.7832   91.9906   12.0076 C.ar    1  UNL1        0.0837
      8 C          65.2991   90.9876   12.9964 C.ar    1  UNL1        0.1446
      9 F          66.4226   91.3544   13.9202 F       1  UNL1       -0.2040
     10 C          64.6916   89.6177   13.0615 C.ar    1  UNL1        0.0313
     11 C          63.5681   89.2509   12.1378 C.ar    1  UNL1        0.0195
     12 C          63.3225   84.1957   14.3333 C.ar    1  UNL1        0.2249
     13 C          63.9987   85.4592   14.7765 C.ar    1  UNL1        0.0577
     14 C          63.8168   86.7230   13.9893 C.ar    1  UNL1        0.0064
     15 C          62.9589   86.7235   12.7590 C.ar    1  UNL1        0.0209
     16 C          62.2826   85.4599   12.3158 C.ar    1  UNL1        0.1021
     17 N          62.4645   84.1961   13.1030 N.ar    1  UNL1       -0.2101
     18 O          63.5043   82.9319   15.1205 O.3     1  UNL1       -0.4602
     19 C          63.6459   81.6190   14.4091 C.3     1  UNL1        0.2070
     20 C          62.7458   80.6680   12.1651 C.3     1  UNL1        0.0038
     21 C          62.5106   81.0855   13.5865 C.3     1  UNL1        0.0438
     22 C          61.1403   80.9696   14.1853 C.3     1  UNL1        0.0038
     23 C          65.3908   93.3606   11.9426 C.2     1  UNL1        0.2662
     24 O          65.8040   94.0584   13.2044 O.2     1  UNL1       -0.2685
     25 N          65.5852   94.0326   10.6157 N.am    1  UNL1       -0.1851
     26 H          65.3140   93.5746    9.7876 H       1  UNL1        0.1765
     27 S          66.1928   95.4025   10.5507 S.O2    1  UNL1        0.0581
     28 C          66.8004   96.7724   10.4856 C.3     1  UNL1        0.1997
     29 O          67.5630   94.7932   10.5185 O.2     1  UNL1       -0.1543
     30 O          64.8225   96.0118   10.5828 O.2     1  UNL1       -0.1543
@<TRIPOS>BOND
     1    20    21    1
     2    21    22    1
     3    21    19    1
     4    19    18    1
     5    18    12    1
     6    12    13   ar
     7    13    14   ar
     8    14    15   ar
     9    15     1    1
    10     1     2   ar
    11     2     3   ar
    12     3     4    1
    13     3     5   ar
    14     5     6   ar
    15     6     7   ar
    16     7    23    1
    17    23    24    2
    18    23    25   am
    19    25    27    1
    20    27    28    1
    21    27    29    2
    22    27    30    2
    23     7     8   ar
    24     8     9    1
    25     8    10   ar
    26    10    11   ar
    27    15    16   ar
    28    16    17   ar
    29    17    12   ar
    30    11     1   ar
    31    11     5   ar
    32    25    26    1
@<TRIPOS>MOLECULE
*****
 30 32 0 0 0
SMALL
GASTEIGER

@<TRIPOS>ATOM
      1 C          62.4350   85.7524   11.5258 C.ar    1  UNL1        0.0202
      2 C          61.6259   86.3546   10.4155 C.ar    1  UNL1        0.0760
      3 N          61.7423   87.8468   10.5139 N.ar    1  UNL1       -0.3240
      4 C          61.0919   88.8440    9.6014 C.3     1  UNL1        0.1305
      5 C          62.6233   88.1669   11.6849 C.ar    1  UNL1        0.0603
      6 C          63.0911   89.4698   12.2625 C.ar    1  UNL1        0.0240
      7 C          63.9869   89.4782   13.4656 C.ar    1  UNL1        0.0837
      8 C          64.4150   88.1838   14.0910 C.ar    1  UNL1        0.1446
      9 F          65.3109   88.1923   15.2941 F       1  UNL1       -0.2040
     10 C          63.9473   86.8809   13.5133 C.ar    1  UNL1        0.0313
     11 C          63.0515   86.8725   12.3103 C.ar    1  UNL1        0.0195
     12 C          62.9267   81.3573   12.3572 C.ar    1  UNL1        0.2249
     13 C          63.3214   81.9169   11.0227 C.ar    1  UNL1        0.0577
     14 C          63.1575   83.3820   10.7456 C.ar    1  UNL1        0.0064
     15 C          62.5989   84.2874   11.8029 C.ar    1  UNL1        0.0209
     16 C          62.2042   83.7278   13.1375 C.ar    1  UNL1        0.1021
     17 N          62.3681   82.2627   13.4146 N.ar    1  UNL1       -0.2101
     18 O          63.0907   79.8922   12.6343 O.3     1  UNL1       -0.4602
     19 C          62.2485   78.8913   11.9003 C.3     1  UNL1        0.2070
     20 C          63.1611   76.8984   10.5056 C.3     1  UNL1        0.0038
     21 C          62.7206   78.3296   10.5920 C.3     1  UNL1        0.0438
     22 C          62.7520   79.1992    9.3702 C.3     1  UNL1        0.0038
     23 C          64.4547   90.7812   14.0433 C.2     1  UNL1        0.2662
     24 O          63.5784   91.5356   14.9987 O.2     1  UNL1       -0.2685
     25 N          65.7987   91.3296   13.6655 N.am    1  UNL1       -0.1851
     26 H          66.3739   90.8344   13.0384 H       1  UNL1        0.1765
     27 S          66.2665   92.6324   14.2432 S.O2    1  UNL1        0.0581
     28 C          66.7343   93.9353   14.8209 C.3     1  UNL1        0.1997
     29 O          66.8900   91.8986   15.3933 O.2     1  UNL1       -0.1543
     30 O          65.6431   93.3662   13.0930 O.2     1  UNL1       -0.1543
@<TRIPOS>BOND
     1    20    21    1
     2    21    22    1
     3    21    19    1
     4    19    18    1
     5    18    12    1
     6    12    13   ar
     7    13    14   ar
     8    14    15   ar
     9    15     1    1
    10     1     2   ar
    11     2     3   ar
    12     3     4    1
    13     3     5   ar
    14     5     6   ar
    15     6     7   ar
    16     7    23    1
    17    23    24    2
    18    23    25   am
    19    25    27    1
    20    27    28    1
    21    27    29    2
    22    27    30    2
    23     7     8   ar
    24     8     9    1
    25     8    10   ar
    26    10    11   ar
    27    15    16   ar
    28    16    17   ar
    29    17    12   ar
    30    11     1   ar
    31    11     5   ar
    32    25    26    1
