@<TRIPOS>MOLECULE
*****
 36 38 0 0 0
SMALL
GASTEIGER

@<TRIPOS>ATOM
      1 C          63.2739   91.8066    9.7119 C.3     1  UNL1        0.0542
      2 C          63.8321   91.5208   11.0745 C.ar    1  UNL1        0.0865
      3 N          65.0554   92.1472   11.6754 N.ar    1  UNL1       -0.1681
      4 N          65.2444   91.5719   13.0477 N.ar    1  UNL1       -0.2150
      5 C          64.1379   90.5898   13.2950 C.ar    1  UNL1        0.1539
      6 C          63.2651   90.5582   12.0755 C.ar    1  UNL1        0.1013
      7 C          66.3465   91.9179   14.0047 C.ar    1  UNL1        0.0844
      8 C          67.7780   91.8174   13.5681 C.ar    1  UNL1        0.0215
      9 C          68.8800   92.1634   14.5251 C.ar    1  UNL1        0.0312
     10 C          68.5505   92.6099   15.9187 C.ar    1  UNL1        0.1402
     11 F          69.6525   92.9559   16.8757 F       1  UNL1       -0.2042
     12 C          67.1190   92.7104   16.3553 C.ar    1  UNL1        0.0312
     13 C          66.0170   92.3644   15.3983 C.ar    1  UNL1        0.0215
     14 C          62.0402   89.7125   11.8897 C.2     1  UNL1        0.2498
     15 O          60.9885   89.6706   12.9584 O.2     1  UNL1       -0.2700
     16 N          61.8670   88.9088   10.6351 N.am    1  UNL1       -0.3024
     17 H          62.5573   88.9363    9.9337 H       1  UNL1        0.1497
     18 C          60.6423   88.0631   10.4492 C.3     1  UNL1        0.0718
     19 C          59.4918   88.1891   11.4034 C.3     1  UNL1        0.0213
     20 C          60.5679   87.0913    9.3088 C.3     1  UNL1        0.0165
     21 C          59.8685   88.1235    8.4748 C.3     1  UNL1        0.0016
     22 C          61.2673   86.0592   10.1428 C.3     1  UNL1        0.0016
     23 C          60.4936   86.1196    8.1686 C.3     1  UNL1        0.0016
     24 N          63.9392   89.7813   14.5427 N.pl3   1  UNL1       -0.1987
     25 H          63.8489   90.2329   15.4128 H       1  UNL1        0.1753
     26 S          63.8779   88.2845   14.4646 S.O2    1  UNL1        0.0747
     27 O          63.6015   88.2189   15.9374 O.2     1  UNL1       -0.1499
     28 O          64.1544   88.3501   12.9918 O.2     1  UNL1       -0.1499
     29 C          63.8167   86.7878   14.3864 C.ar    1  UNL1        0.1253
     30 C          64.1385   85.9599   15.5952 C.ar    1  UNL1        0.0209
     31 C          64.0773   84.4632   15.5170 C.ar    1  UNL1        0.0117
     32 C          63.6943   83.7944   14.2301 C.ar    1  UNL1        0.0685
     33 C          63.3725   84.6223   13.0214 C.ar    1  UNL1        0.0117
     34 C          63.4337   86.1190   13.0996 C.ar    1  UNL1        0.0209
     35 C          63.6331   82.2977   14.1520 C.1     1  UNL1        0.1004
     36 N          63.5719   80.8010   14.0738 N.1     1  UNL1       -0.1908
@<TRIPOS>BOND
     1     1     2    1
     2     2     3   ar
     3     3     4   ar
     4     4     7    1
     5     7     8   ar
     6     8     9   ar
     7     9    10   ar
     8    10    11    1
     9    10    12   ar
    10    12    13   ar
    11     4     5   ar
    12     5    24    1
    13    24    26    1
    14    26    27    2
    15    26    28    2
    16    26    29    1
    17    29    30   ar
    18    30    31   ar
    19    31    32   ar
    20    32    35    1
    21    35    36    3
    22    32    33   ar
    23    33    34   ar
    24     5     6   ar
    25     6    14    1
    26    14    15    2
    27    14    16   am
    28    16    18    1
    29    18    19    1
    30    18    20    1
    31    20    21    1
    32    20    22    1
    33    20    23    1
    34     6     2   ar
    35    13     7   ar
    36    34    29   ar
    37    24    25    1
    38    16    17    1
@<TRIPOS>MOLECULE
*****
 36 38 0 0 0
SMALL
GASTEIGER

@<TRIPOS>ATOM
      1 C          63.1549   82.9538   10.8583 C.3     1  UNL1        0.0542
      2 C          62.4900   84.2918   10.7260 C.ar    1  UNL1        0.0865
      3 N          61.8391   84.8344    9.4883 N.ar    1  UNL1       -0.1681
      4 N          61.3061   86.2002    9.8055 N.ar    1  UNL1       -0.2150
      5 C          61.6276   86.5017   11.2393 C.ar    1  UNL1        0.1539
      6 C          62.3592   85.3223   11.8082 C.ar    1  UNL1        0.1013
      7 C          60.5792   87.1055    8.8556 C.ar    1  UNL1        0.0844
      8 C          59.6552   86.5259    7.8260 C.ar    1  UNL1        0.0215
      9 C          58.9284   87.4312    6.8762 C.ar    1  UNL1        0.0312
     10 C          59.1255   88.9160    6.9561 C.ar    1  UNL1        0.1402
     11 F          58.3986   89.8213    6.0062 F       1  UNL1       -0.2042
     12 C          60.0495   89.4956    7.9857 C.ar    1  UNL1        0.0312
     13 C          60.7764   88.5903    8.9355 C.ar    1  UNL1        0.0215
     14 C          62.8705   85.1956   13.2127 C.2     1  UNL1        0.2498
     15 O          62.5664   83.9641   14.0133 O.2     1  UNL1       -0.2700
     16 N          63.6857   86.3004   13.8166 N.am    1  UNL1       -0.3024
     17 H          63.8853   87.1086   13.2912 H       1  UNL1        0.1497
     18 C          64.1970   86.1737   15.2210 C.3     1  UNL1        0.0718
     19 C          65.3607   85.2750   15.5175 C.3     1  UNL1        0.0213
     20 C          63.5443   86.9460   16.3292 C.3     1  UNL1        0.0165
     21 C          63.8903   88.2312   15.6373 C.3     1  UNL1        0.0016
     22 C          63.1983   85.6608   17.0210 C.3     1  UNL1        0.0016
     23 C          62.8917   87.7182   17.4372 C.3     1  UNL1        0.0016
     24 N          61.2786   87.7614   11.9750 N.pl3   1  UNL1       -0.1987
     25 H          60.4534   87.8065   12.5100 H       1  UNL1        0.1753
     26 S          62.1871   88.9524   11.8956 S.O2    1  UNL1        0.0747
     27 O          63.3504   88.0467   11.6189 O.2     1  UNL1       -0.1499
     28 O          61.0239   89.8581   12.1723 O.2     1  UNL1       -0.1499
     29 C          63.0955   90.1434   11.8162 C.ar    1  UNL1        0.1253
     30 C          63.2084   90.9165   10.5358 C.ar    1  UNL1        0.0209
     31 C          64.1168   92.1075   10.4564 C.ar    1  UNL1        0.0117
     32 C          64.9124   92.5254   11.6575 C.ar    1  UNL1        0.0685
     33 C          64.7995   91.7523   12.9379 C.ar    1  UNL1        0.0117
     34 C          63.8911   90.5613   13.0173 C.ar    1  UNL1        0.0209
     35 C          65.8208   93.7164   11.5781 C.1     1  UNL1        0.1004
     36 N          66.7292   94.9074   11.4987 N.1     1  UNL1       -0.1908
@<TRIPOS>BOND
     1     1     2    1
     2     2     3   ar
     3     3     4   ar
     4     4     7    1
     5     7     8   ar
     6     8     9   ar
     7     9    10   ar
     8    10    11    1
     9    10    12   ar
    10    12    13   ar
    11     4     5   ar
    12     5    24    1
    13    24    26    1
    14    26    27    2
    15    26    28    2
    16    26    29    1
    17    29    30   ar
    18    30    31   ar
    19    31    32   ar
    20    32    35    1
    21    35    36    3
    22    32    33   ar
    23    33    34   ar
    24     5     6   ar
    25     6    14    1
    26    14    15    2
    27    14    16   am
    28    16    18    1
    29    18    19    1
    30    18    20    1
    31    20    21    1
    32    20    22    1
    33    20    23    1
    34     6     2   ar
    35    13     7   ar
    36    34    29   ar
    37    24    25    1
    38    16    17    1
@<TRIPOS>MOLECULE
*****
 36 38 0 0 0
SMALL
GASTEIGER

@<TRIPOS>ATOM
      1 C          64.0536   82.6122   10.4761 C.3     1  UNL1        0.0542
      2 C          63.5481   83.6790   11.4014 C.ar    1  UNL1        0.0865
      3 N          63.7546   83.7285   12.8863 N.ar    1  UNL1       -0.1681
      4 N          63.0815   84.9638   13.4070 N.ar    1  UNL1       -0.2150
      5 C          62.4591   85.6778   12.2439 C.ar    1  UNL1        0.1539
      6 C          62.7475   84.8838   11.0044 C.ar    1  UNL1        0.1013
      7 C          63.0385   85.4073   14.8393 C.ar    1  UNL1        0.0844
      8 C          62.1537   84.6948   15.8188 C.ar    1  UNL1        0.0215
      9 C          62.1107   85.1382   17.2511 C.ar    1  UNL1        0.0312
     10 C          62.9525   86.2942   17.7039 C.ar    1  UNL1        0.1402
     11 F          62.9095   86.7377   19.1362 F       1  UNL1       -0.2042
     12 C          63.8373   87.0067   16.7244 C.ar    1  UNL1        0.0312
     13 C          63.8803   86.5633   15.2922 C.ar    1  UNL1        0.0215
     14 C          62.3117   85.2331    9.6122 C.2     1  UNL1        0.2498
     15 O          63.2236   84.9660    8.4516 O.2     1  UNL1       -0.2700
     16 N          60.9639   85.8496    9.3807 N.am    1  UNL1       -0.3024
     17 H          60.3654   86.0249   10.1424 H       1  UNL1        0.1497
     18 C          60.5281   86.1989    7.9887 C.3     1  UNL1        0.0718
     19 C          60.8131   85.2586    6.8552 C.3     1  UNL1        0.0213
     20 C          59.8071   87.4887    7.7300 C.3     1  UNL1        0.0165
     21 C          58.6333   86.7248    7.1926 C.3     1  UNL1        0.0016
     22 C          60.9809   88.2526    8.2674 C.3     1  UNL1        0.0016
     23 C          59.0862   88.7784    7.4714 C.3     1  UNL1        0.0016
     24 N          61.6843   86.9605   12.3088 N.pl3   1  UNL1       -0.1987
     25 H          60.7234   86.9450   12.5225 H       1  UNL1        0.1753
     26 S          62.3737   88.2671   12.0482 S.O2    1  UNL1        0.0747
     27 O          61.0857   88.8458   11.5423 O.2     1  UNL1       -0.1499
     28 O          63.6617   87.6883   12.5542 O.2     1  UNL1       -0.1499
     29 C          63.0631   89.5735   11.7877 C.ar    1  UNL1        0.1253
     30 C          62.8968   90.2583   10.4635 C.ar    1  UNL1        0.0209
     31 C          63.5862   91.5647   10.2029 C.ar    1  UNL1        0.0117
     32 C          64.4419   92.1864   11.2665 C.ar    1  UNL1        0.0685
     33 C          64.6082   91.5017   12.5907 C.ar    1  UNL1        0.0117
     34 C          63.9188   90.1952   12.8513 C.ar    1  UNL1        0.0209
     35 C          65.1313   93.4929   11.0059 C.1     1  UNL1        0.1004
     36 N          65.8207   94.7993   10.7454 N.1     1  UNL1       -0.1908
@<TRIPOS>BOND
     1     1     2    1
     2     2     3   ar
     3     3     4   ar
     4     4     7    1
     5     7     8   ar
     6     8     9   ar
     7     9    10   ar
     8    10    11    1
     9    10    12   ar
    10    12    13   ar
    11     4     5   ar
    12     5    24    1
    13    24    26    1
    14    26    27    2
    15    26    28    2
    16    26    29    1
    17    29    30   ar
    18    30    31   ar
    19    31    32   ar
    20    32    35    1
    21    35    36    3
    22    32    33   ar
    23    33    34   ar
    24     5     6   ar
    25     6    14    1
    26    14    15    2
    27    14    16   am
    28    16    18    1
    29    18    19    1
    30    18    20    1
    31    20    21    1
    32    20    22    1
    33    20    23    1
    34     6     2   ar
    35    13     7   ar
    36    34    29   ar
    37    24    25    1
    38    16    17    1
@<TRIPOS>MOLECULE
*****
 36 38 0 0 0
SMALL
GASTEIGER

@<TRIPOS>ATOM
      1 C          61.3057   84.6192    8.0052 C.3     1  UNL1        0.0542
      2 C          60.8605   86.0509    8.0506 C.ar    1  UNL1        0.0865
      3 N          60.3303   86.8463    6.8947 N.ar    1  UNL1       -0.1681
      4 N          60.0095   88.2256    7.3895 N.ar    1  UNL1       -0.2150
      5 C          60.3414   88.2825    8.8512 C.ar    1  UNL1        0.1539
      6 C          60.8673   86.9385    9.2598 C.ar    1  UNL1        0.1013
      7 C          59.4542   89.3504    6.5669 C.ar    1  UNL1        0.0844
      8 C          60.3812   90.2549    5.8103 C.ar    1  UNL1        0.0215
      9 C          59.8259   91.3797    4.9878 C.ar    1  UNL1        0.0312
     10 C          58.3436   91.5999    4.9219 C.ar    1  UNL1        0.1402
     11 F          57.7883   92.7247    4.0994 F       1  UNL1       -0.2042
     12 C          57.4166   90.6954    5.6785 C.ar    1  UNL1        0.0312
     13 C          57.9719   89.5706    6.5010 C.ar    1  UNL1        0.0215
     14 C          61.3206   86.5502   10.6359 C.2     1  UNL1        0.2498
     15 O          60.6236   87.1094   11.8407 O.2     1  UNL1       -0.2700
     16 N          62.4707   85.6028   10.8073 N.am    1  UNL1       -0.3024
     17 H          62.9282   85.2358   10.0166 H       1  UNL1        0.1497
     18 C          62.9240   85.2145   12.1834 C.3     1  UNL1        0.0718
     19 C          63.4761   86.2545   13.1126 C.3     1  UNL1        0.0213
     20 C          62.8252   83.7859   12.6302 C.3     1  UNL1        0.0165
     21 C          63.1600   83.3283   11.2414 C.3     1  UNL1        0.0016
     22 C          62.4905   84.2434   14.0190 C.3     1  UNL1        0.0016
     23 C          62.7265   82.3574   13.0770 C.3     1  UNL1        0.0016
     24 N          60.1763   89.4742    9.7470 N.pl3   1  UNL1       -0.1987
     25 H          59.2813   89.8546    9.9004 H       1  UNL1        0.1753
     26 S          61.3750   90.0864   10.4092 S.O2    1  UNL1        0.0747
     27 O          60.5269   90.4780   11.5828 O.2     1  UNL1       -0.1499
     28 O          62.2232   89.6949    9.2356 O.2     1  UNL1       -0.1499
     29 C          62.5737   90.6986   11.0713 C.ar    1  UNL1        0.1253
     30 C          63.4749   91.6119   10.2944 C.ar    1  UNL1        0.0209
     31 C          64.6736   92.2240   10.9565 C.ar    1  UNL1        0.0117
     32 C          64.9711   91.9229   12.3955 C.ar    1  UNL1        0.0685
     33 C          64.0699   91.0095   13.1724 C.ar    1  UNL1        0.0117
     34 C          62.8712   90.3974   12.5103 C.ar    1  UNL1        0.0209
     35 C          66.1698   92.5350   13.0576 C.1     1  UNL1        0.1004
     36 N          67.3685   93.1472   13.7197 N.1     1  UNL1       -0.1908
@<TRIPOS>BOND
     1     1     2    1
     2     2     3   ar
     3     3     4   ar
     4     4     7    1
     5     7     8   ar
     6     8     9   ar
     7     9    10   ar
     8    10    11    1
     9    10    12   ar
    10    12    13   ar
    11     4     5   ar
    12     5    24    1
    13    24    26    1
    14    26    27    2
    15    26    28    2
    16    26    29    1
    17    29    30   ar
    18    30    31   ar
    19    31    32   ar
    20    32    35    1
    21    35    36    3
    22    32    33   ar
    23    33    34   ar
    24     5     6   ar
    25     6    14    1
    26    14    15    2
    27    14    16   am
    28    16    18    1
    29    18    19    1
    30    18    20    1
    31    20    21    1
    32    20    22    1
    33    20    23    1
    34     6     2   ar
    35    13     7   ar
    36    34    29   ar
    37    24    25    1
    38    16    17    1
@<TRIPOS>MOLECULE
*****
 36 38 0 0 0
SMALL
GASTEIGER

@<TRIPOS>ATOM
      1 C          62.1132   86.3773   18.1362 C.3     1  UNL1        0.0542
      2 C          62.8031   87.1457   17.0483 C.ar    1  UNL1        0.0865
      3 N          63.3204   88.5498   17.1525 N.ar    1  UNL1       -0.1681
      4 N          63.9340   88.9168   15.8338 N.ar    1  UNL1       -0.2150
      5 C          63.7959   87.7394   14.9146 C.ar    1  UNL1        0.1539
      6 C          63.0970   86.6448   15.6652 C.ar    1  UNL1        0.1013
      7 C          64.5733   90.2305   15.4939 C.ar    1  UNL1        0.0844
      8 C          64.3678   91.4179   16.3870 C.ar    1  UNL1        0.0215
      9 C          65.0071   92.7316   16.0471 C.ar    1  UNL1        0.0312
     10 C          65.8520   92.8577   14.8141 C.ar    1  UNL1        0.1402
     11 F          66.4914   94.1714   14.4743 F       1  UNL1       -0.2042
     12 C          66.0576   91.6703   13.9211 C.ar    1  UNL1        0.0312
     13 C          65.4183   90.3566   14.2609 C.ar    1  UNL1        0.0215
     14 C          62.7525   85.2877   15.1273 C.2     1  UNL1        0.2498
     15 O          61.3668   84.7409   15.3028 O.2     1  UNL1       -0.2700
     16 N          63.7936   84.4772   14.4137 N.am    1  UNL1       -0.3024
     17 H          64.7031   84.8361   14.2985 H       1  UNL1        0.1497
     18 C          63.4492   83.1202   13.8757 C.3     1  UNL1        0.0718
     19 C          62.8596   82.0812   14.7829 C.3     1  UNL1        0.0213
     20 C          63.6944   82.8020   12.4304 C.3     1  UNL1        0.0165
     21 C          62.4230   82.0070   12.3898 C.3     1  UNL1        0.0016
     22 C          64.9657   83.5970   12.4711 C.3     1  UNL1        0.0016
     23 C          63.9395   82.4839   10.9852 C.3     1  UNL1        0.0016
     24 N          64.2729   87.6690   13.4943 N.pl3   1  UNL1       -0.1987
     25 H          65.2186   87.4749   13.3016 H       1  UNL1        0.1753
     26 S          63.3088   87.8944   12.3673 S.O2    1  UNL1        0.0747
     27 O          63.5542   89.3718   12.4529 O.2     1  UNL1       -0.1499
     28 O          63.0635   86.4171   12.2818 O.2     1  UNL1       -0.1499
     29 C          62.3448   88.1198   11.2404 C.ar    1  UNL1        0.1253
     30 C          61.7117   86.9486   10.5495 C.ar    1  UNL1        0.0209
     31 C          60.7477   87.1739    9.4226 C.ar    1  UNL1        0.0117
     32 C          60.4168   88.5705    8.9867 C.ar    1  UNL1        0.0685
     33 C          61.0498   89.7417    9.6776 C.ar    1  UNL1        0.0117
     34 C          62.0139   89.5164   10.8045 C.ar    1  UNL1        0.0209
     35 C          59.4528   88.7958    7.8598 C.1     1  UNL1        0.1004
     36 N          58.4887   89.0212    6.7329 N.1     1  UNL1       -0.1908
@<TRIPOS>BOND
     1     1     2    1
     2     2     3   ar
     3     3     4   ar
     4     4     7    1
     5     7     8   ar
     6     8     9   ar
     7     9    10   ar
     8    10    11    1
     9    10    12   ar
    10    12    13   ar
    11     4     5   ar
    12     5    24    1
    13    24    26    1
    14    26    27    2
    15    26    28    2
    16    26    29    1
    17    29    30   ar
    18    30    31   ar
    19    31    32   ar
    20    32    35    1
    21    35    36    3
    22    32    33   ar
    23    33    34   ar
    24     5     6   ar
    25     6    14    1
    26    14    15    2
    27    14    16   am
    28    16    18    1
    29    18    19    1
    30    18    20    1
    31    20    21    1
    32    20    22    1
    33    20    23    1
    34     6     2   ar
    35    13     7   ar
    36    34    29   ar
    37    24    25    1
    38    16    17    1
@<TRIPOS>MOLECULE
*****
 36 38 0 0 0
SMALL
GASTEIGER

@<TRIPOS>ATOM
      1 C          60.6526   86.0660    6.7727 C.3     1  UNL1        0.0542
      2 C          60.9408   86.4642    8.1899 C.ar    1  UNL1        0.0865
      3 N          61.6764   85.6404    9.2049 N.ar    1  UNL1       -0.1681
      4 N          61.7343   86.4231   10.4832 N.ar    1  UNL1       -0.2150
      5 C          61.0345   87.7306   10.2582 C.ar    1  UNL1        0.1539
      6 C          60.5441   87.7560    8.8409 C.ar    1  UNL1        0.1013
      7 C          62.3788   85.9766   11.7620 C.ar    1  UNL1        0.0844
      8 C          62.1332   84.5912   12.2818 C.ar    1  UNL1        0.0215
      9 C          62.7777   84.1447   13.5606 C.ar    1  UNL1        0.0312
     10 C          63.6678   85.0837   14.3195 C.ar    1  UNL1        0.1402
     11 F          64.3124   84.6372   15.5983 F       1  UNL1       -0.2042
     12 C          63.9134   86.4691   13.7997 C.ar    1  UNL1        0.0312
     13 C          63.2689   86.9156   12.5210 C.ar    1  UNL1        0.0215
     14 C          59.7895   88.8766    8.1890 C.2     1  UNL1        0.2498
     15 O          59.4045   90.0862    8.9880 O.2     1  UNL1       -0.2700
     16 N          59.4198   88.7875    6.7380 N.am    1  UNL1       -0.3024
     17 H          59.6725   87.9935    6.2135 H       1  UNL1        0.1497
     18 C          58.6653   89.9079    6.0860 C.3     1  UNL1        0.0718
     19 C          57.1759   89.9981    6.2392 C.3     1  UNL1        0.0213
     20 C          59.4002   90.9382    5.2807 C.3     1  UNL1        0.0165
     21 C          60.6989   90.2550    5.5919 C.3     1  UNL1        0.0016
     22 C          58.1016   91.6213    4.9695 C.3     1  UNL1        0.0016
     23 C          60.1352   91.9684    4.4754 C.3     1  UNL1        0.0016
     24 N          60.8563   88.8213   11.2725 N.pl3   1  UNL1       -0.1987
     25 H          59.9577   89.0341   11.6138 H       1  UNL1        0.1753
     26 S          62.0473   89.5877   11.7667 S.O2    1  UNL1        0.0747
     27 O          61.4005   89.7249   13.1131 O.2     1  UNL1       -0.1499
     28 O          62.6942   89.4505   10.4203 O.2     1  UNL1       -0.1499
     29 C          63.2383   90.3540   12.2608 C.ar    1  UNL1        0.1253
     30 C          63.9112   91.3528   11.3665 C.ar    1  UNL1        0.0209
     31 C          65.1023   92.1191   11.8606 C.ar    1  UNL1        0.0117
     32 C          65.6204   91.8868   13.2490 C.ar    1  UNL1        0.0685
     33 C          64.9474   90.8881   14.1433 C.ar    1  UNL1        0.0117
     34 C          63.7564   90.1217   13.6492 C.ar    1  UNL1        0.0209
     35 C          66.8114   92.6531   13.7431 C.1     1  UNL1        0.1004
     36 N          68.0024   93.4195   14.2373 N.1     1  UNL1       -0.1908
@<TRIPOS>BOND
     1     1     2    1
     2     2     3   ar
     3     3     4   ar
     4     4     7    1
     5     7     8   ar
     6     8     9   ar
     7     9    10   ar
     8    10    11    1
     9    10    12   ar
    10    12    13   ar
    11     4     5   ar
    12     5    24    1
    13    24    26    1
    14    26    27    2
    15    26    28    2
    16    26    29    1
    17    29    30   ar
    18    30    31   ar
    19    31    32   ar
    20    32    35    1
    21    35    36    3
    22    32    33   ar
    23    33    34   ar
    24     5     6   ar
    25     6    14    1
    26    14    15    2
    27    14    16   am
    28    16    18    1
    29    18    19    1
    30    18    20    1
    31    20    21    1
    32    20    22    1
    33    20    23    1
    34     6     2   ar
    35    13     7   ar
    36    34    29   ar
    37    24    25    1
    38    16    17    1
@<TRIPOS>MOLECULE
*****
 36 38 0 0 0
SMALL
GASTEIGER

@<TRIPOS>ATOM
      1 C          64.2092   82.5344   13.6739 C.3     1  UNL1        0.0542
      2 C          63.5118   83.4575   12.7192 C.ar    1  UNL1        0.0865
      3 N          63.4292   83.2888   11.2310 N.ar    1  UNL1       -0.1681
      4 N          62.6409   84.4384   10.6771 N.ar    1  UNL1       -0.2150
      5 C          62.2361   85.3177   11.8230 C.ar    1  UNL1        0.1539
      6 C          62.7744   84.7115   13.0851 C.ar    1  UNL1        0.1013
      7 C          62.3145   84.6684    9.2312 C.ar    1  UNL1        0.0844
      8 C          63.2371   84.1589    8.1639 C.ar    1  UNL1        0.0215
      9 C          62.9107   84.3888    6.7180 C.ar    1  UNL1        0.0312
     10 C          61.6617   85.1283    6.3395 C.ar    1  UNL1        0.1402
     11 F          61.3354   85.3583    4.8935 F       1  UNL1       -0.2042
     12 C          60.7392   85.6379    7.4068 C.ar    1  UNL1        0.0312
     13 C          61.0656   85.4079    8.8527 C.ar    1  UNL1        0.0215
     14 C          62.6050   85.2625   14.4699 C.2     1  UNL1        0.2498
     15 O          61.4280   84.8490   15.3028 O.2     1  UNL1       -0.2700
     16 N          63.6125   86.2270   15.0218 N.am    1  UNL1       -0.3024
     17 H          64.3850   86.4984   14.4751 H       1  UNL1        0.1497
     18 C          63.4432   86.7780   16.4065 C.3     1  UNL1        0.0718
     19 C          63.3521   85.8464   17.5786 C.3     1  UNL1        0.0213
     20 C          63.3650   88.2609   16.6192 C.3     1  UNL1        0.0165
     21 C          64.0564   88.4856   15.3070 C.3     1  UNL1        0.0016
     22 C          62.6737   88.0363   17.9313 C.3     1  UNL1        0.0016
     23 C          63.2869   89.7437   16.8318 C.3     1  UNL1        0.0016
     24 N          61.4340   86.5814   11.7242 N.pl3   1  UNL1       -0.1987
     25 H          60.4509   86.5446   11.7614 H       1  UNL1        0.1753
     26 S          62.1299   87.9011   11.5687 S.O2    1  UNL1        0.0747
     27 O          63.3166   87.3631   12.3118 O.2     1  UNL1       -0.1499
     28 O          60.9432   88.4392   10.8256 O.2     1  UNL1       -0.1499
     29 C          62.8256   89.2209   11.4132 C.ar    1  UNL1        0.1253
     30 C          63.5877   89.8072   12.5645 C.ar    1  UNL1        0.0209
     31 C          64.2834   91.1269   12.4090 C.ar    1  UNL1        0.0117
     32 C          64.2172   91.8603   11.1022 C.ar    1  UNL1        0.0685
     33 C          63.4551   91.2740    9.9509 C.ar    1  UNL1        0.0117
     34 C          62.7594   89.9543   10.1064 C.ar    1  UNL1        0.0209
     35 C          64.9129   93.1801   10.9467 C.1     1  UNL1        0.1004
     36 N          65.6087   94.4998   10.7912 N.1     1  UNL1       -0.1908
@<TRIPOS>BOND
     1     1     2    1
     2     2     3   ar
     3     3     4   ar
     4     4     7    1
     5     7     8   ar
     6     8     9   ar
     7     9    10   ar
     8    10    11    1
     9    10    12   ar
    10    12    13   ar
    11     4     5   ar
    12     5    24    1
    13    24    26    1
    14    26    27    2
    15    26    28    2
    16    26    29    1
    17    29    30   ar
    18    30    31   ar
    19    31    32   ar
    20    32    35    1
    21    35    36    3
    22    32    33   ar
    23    33    34   ar
    24     5     6   ar
    25     6    14    1
    26    14    15    2
    27    14    16   am
    28    16    18    1
    29    18    19    1
    30    18    20    1
    31    20    21    1
    32    20    22    1
    33    20    23    1
    34     6     2   ar
    35    13     7   ar
    36    34    29   ar
    37    24    25    1
    38    16    17    1
