@<TRIPOS>MOLECULE
*****
 24 26 0 0 0
SMALL
GASTEIGER

@<TRIPOS>ATOM
      1 C          63.9539   84.1087   13.9499 C.2     1  UNL1        0.1045
      2 C          64.0390   85.3339   14.8111 C.2     1  UNL1        0.1087
      3 C          63.0080   84.7562   15.7349 C.2     1  UNL1        0.2501
      4 O          62.3392   85.2141   16.9971 O.2     1  UNL1       -0.2817
      5 C          62.9229   83.5310   14.8737 C.2     1  UNL1        0.2498
      6 O          62.1338   82.2561   14.9180 O.2     1  UNL1       -0.2817
      7 N          64.6227   83.6509   12.6878 N.pl3   1  UNL1       -0.3270
      8 H          65.6054   83.6330   12.6300 H       1  UNL1        0.1472
      9 C          63.6017   81.7606   11.2269 C.3     1  UNL1        0.0261
     10 C          63.7944   83.2202   11.5137 C.3     1  UNL1        0.0920
     11 C          63.1589   84.2493   10.6265 C.ar    1  UNL1       -0.0046
     12 C          63.5504   84.3382    9.1812 C.ar    1  UNL1       -0.0027
     13 C          62.9148   85.3672    8.2940 C.ar    1  UNL1       -0.0003
     14 C          61.8878   86.3073    8.8521 C.ar    1  UNL1       -0.0000
     15 C          61.4963   86.2184   10.2973 C.ar    1  UNL1       -0.0003
     16 C          62.1318   85.1894   11.1845 C.ar    1  UNL1       -0.0027
     17 N          64.8282   86.6088   14.7668 N.pl3   1  UNL1       -0.2947
     18 H          65.7924   86.5843   14.5695 H       1  UNL1        0.1537
     19 C          64.1482   87.9211   15.0231 C.ar    1  UNL1        0.1271
     20 C          64.2482   89.1481   14.1661 C.ar    1  UNL1        0.0562
     21 C          63.4106   90.2221   14.7948 C.ar    1  UNL1        0.1228
     22 N          62.7930   89.6588   16.0403 N.ar    1  UNL1       -0.1700
     23 N          63.2489   88.2367   16.1814 N.ar    1  UNL1       -0.2628
     24 H          63.0013   87.6190   16.9069 H       1  UNL1        0.1903
@<TRIPOS>BOND
     1    10     9    1
     2    10     7    1
     3     7     1    1
     4     1     2    2
     5     2    17    1
     6    17    19    1
     7    19    20   ar
     8    20    21   ar
     9    21    22   ar
    10    22    23   ar
    11     2     3    1
    12     3     4    2
    13     3     5    1
    14     5     6    2
    15    10    11    1
    16    11    12   ar
    17    12    13   ar
    18    13    14   ar
    19    14    15   ar
    20    15    16   ar
    21     5     1    1
    22    16    11   ar
    23    23    19   ar
    24     7     8    1
    25    17    18    1
    26    23    24    1
@<TRIPOS>MOLECULE
*****
 24 26 0 0 0
SMALL
GASTEIGER

@<TRIPOS>ATOM
      1 C          60.5702   87.3780    9.2444 C.2     1  UNL1        0.1045
      2 C          60.2719   88.8326    9.0317 C.2     1  UNL1        0.1087
      3 C          59.5734   88.5013    7.7462 C.2     1  UNL1        0.2501
      4 O          58.8685   89.2957    6.6869 O.2     1  UNL1       -0.2817
      5 C          59.8717   87.0468    7.9589 C.2     1  UNL1        0.2498
      6 O          59.5887   85.7840    7.2004 O.2     1  UNL1       -0.2817
      7 N          61.2751   86.5837   10.3037 N.pl3   1  UNL1       -0.3270
      8 H          61.0244   86.6930   11.2494 H       1  UNL1        0.1472
      9 C          62.9014   85.6181    8.5225 C.3     1  UNL1        0.0261
     10 C          62.3618   85.6228    9.9221 C.3     1  UNL1        0.0920
     11 C          62.9091   84.6666   10.9401 C.ar    1  UNL1       -0.0046
     12 C          63.7571   83.5094   10.5025 C.ar    1  UNL1       -0.0027
     13 C          64.3042   82.5533   11.5205 C.ar    1  UNL1       -0.0003
     14 C          64.0034   82.7544   12.9762 C.ar    1  UNL1       -0.0000
     15 C          63.1554   83.9116   13.4138 C.ar    1  UNL1       -0.0003
     16 C          62.6082   84.8678   12.3958 C.ar    1  UNL1       -0.0027
     17 N          60.5549   90.0953    9.7903 N.pl3   1  UNL1       -0.2947
     18 H          60.1360   90.9415    9.5115 H       1  UNL1        0.1537
     19 C          61.4763   90.0688   10.9736 C.ar    1  UNL1        0.1271
     20 C          62.9408   90.3931   10.9582 C.ar    1  UNL1        0.0562
     21 C          63.4646   90.2380   12.3553 C.ar    1  UNL1        0.1228
     22 N          62.3238   89.8180   13.2341 N.ar    1  UNL1       -0.1700
     23 N          61.0950   89.7134   12.3802 N.ar    1  UNL1       -0.2628
     24 H          60.1961   89.4566   12.6887 H       1  UNL1        0.1903
@<TRIPOS>BOND
     1    10     9    1
     2    10     7    1
     3     7     1    1
     4     1     2    2
     5     2    17    1
     6    17    19    1
     7    19    20   ar
     8    20    21   ar
     9    21    22   ar
    10    22    23   ar
    11     2     3    1
    12     3     4    2
    13     3     5    1
    14     5     6    2
    15    10    11    1
    16    11    12   ar
    17    12    13   ar
    18    13    14   ar
    19    14    15   ar
    20    15    16   ar
    21     5     1    1
    22    16    11   ar
    23    23    19   ar
    24     7     8    1
    25    17    18    1
    26    23    24    1
@<TRIPOS>MOLECULE
*****
 24 26 0 0 0
SMALL
GASTEIGER

@<TRIPOS>ATOM
      1 C          63.0657   88.8208   12.2200 C.2     1  UNL1        0.1045
      2 C          63.9117   89.3126   13.3568 C.2     1  UNL1        0.1087
      3 C          63.8168   90.7109   12.8225 C.2     1  UNL1        0.2501
      4 O          64.3480   92.0475   13.2486 O.2     1  UNL1       -0.2817
      5 C          62.9708   90.2192   11.6856 C.2     1  UNL1        0.2498
      6 O          62.3056   90.8602   10.5039 O.2     1  UNL1       -0.2817
      7 N          62.5345   87.4843   11.7939 N.pl3   1  UNL1       -0.3270
      8 H          62.9610   86.6587   12.1191 H       1  UNL1        0.1472
      9 C          60.0784   88.1122   11.2254 C.3     1  UNL1        0.0261
     10 C          61.3536   87.4056   10.8724 C.3     1  UNL1        0.0920
     11 C          61.4478   86.6202    9.5979 C.ar    1  UNL1       -0.0046
     12 C          60.2525   86.5026    8.6993 C.ar    1  UNL1       -0.0027
     13 C          60.3468   85.7173    7.4249 C.ar    1  UNL1       -0.0003
     14 C          61.6363   85.0495    7.0490 C.ar    1  UNL1       -0.0000
     15 C          62.8315   85.1671    7.9475 C.ar    1  UNL1       -0.0003
     16 C          62.7373   85.9525    9.2220 C.ar    1  UNL1       -0.0027
     17 N          64.5769   88.6714   14.5386 N.pl3   1  UNL1       -0.2947
     18 H          65.3698   89.0906   14.9445 H       1  UNL1        0.1537
     19 C          64.0341   87.3916   15.1018 C.ar    1  UNL1        0.1271
     20 C          64.3001   86.0129   14.5737 C.ar    1  UNL1        0.0562
     21 C          63.5603   85.0350   15.4376 C.ar    1  UNL1        0.1228
     22 N          62.8370   85.8091   16.4995 N.ar    1  UNL1       -0.1700
     23 N          63.1298   87.2655   16.2919 N.ar    1  UNL1       -0.2628
     24 H          62.7884   88.0083   16.8405 H       1  UNL1        0.1903
@<TRIPOS>BOND
     1    10     9    1
     2    10     7    1
     3     7     1    1
     4     1     2    2
     5     2    17    1
     6    17    19    1
     7    19    20   ar
     8    20    21   ar
     9    21    22   ar
    10    22    23   ar
    11     2     3    1
    12     3     4    2
    13     3     5    1
    14     5     6    2
    15    10    11    1
    16    11    12   ar
    17    12    13   ar
    18    13    14   ar
    19    14    15   ar
    20    15    16   ar
    21     5     1    1
    22    16    11   ar
    23    23    19   ar
    24     7     8    1
    25    17    18    1
    26    23    24    1
@<TRIPOS>MOLECULE
*****
 24 26 0 0 0
SMALL
GASTEIGER

@<TRIPOS>ATOM
      1 C          62.0654   88.3807   11.4695 C.2     1  UNL1        0.1045
      2 C          63.0687   89.1332   12.2924 C.2     1  UNL1        0.1087
      3 C          63.0341   90.2606   11.3037 C.2     1  UNL1        0.2501
      4 O          63.7192   91.5900   11.1865 O.2     1  UNL1       -0.2817
      5 C          62.0309   89.5081   10.4807 C.2     1  UNL1        0.2498
      6 O          61.2971   89.7733    9.1996 O.2     1  UNL1       -0.2817
      7 N          61.3805   87.0514   11.5867 N.pl3   1  UNL1       -0.3270
      8 H          60.7465   86.8875   12.3218 H       1  UNL1        0.1472
      9 C          61.0154   86.0183    9.2310 C.3     1  UNL1        0.0261
     10 C          61.6615   85.9719   10.5839 C.3     1  UNL1        0.0920
     11 C          62.5886   84.8458   10.9341 C.ar    1  UNL1       -0.0046
     12 C          62.7474   84.4222   12.3642 C.ar    1  UNL1       -0.0027
     13 C          63.6744   83.2962   12.7143 C.ar    1  UNL1       -0.0003
     14 C          64.4426   82.5937   11.6343 C.ar    1  UNL1       -0.0000
     15 C          64.2838   83.0173   10.2042 C.ar    1  UNL1       -0.0003
     16 C          63.3568   84.1433    9.8541 C.ar    1  UNL1       -0.0027
     17 N          63.8025   88.8680   13.5736 N.pl3   1  UNL1       -0.2947
     18 H          64.1279   87.9611   13.7759 H       1  UNL1        0.1537
     19 C          64.0406   89.9846   14.5465 C.ar    1  UNL1        0.1271
     20 C          65.2239   90.9064   14.5584 C.ar    1  UNL1        0.0562
     21 C          65.0517   91.8669   15.6976 C.ar    1  UNL1        0.1228
     22 N          63.7621   91.5388   16.3898 N.ar    1  UNL1       -0.1700
     23 N          63.1372   90.3754   15.6783 N.ar    1  UNL1       -0.2628
     24 H          62.2839   89.9441   15.9131 H       1  UNL1        0.1903
@<TRIPOS>BOND
     1    10     9    1
     2    10     7    1
     3     7     1    1
     4     1     2    2
     5     2    17    1
     6    17    19    1
     7    19    20   ar
     8    20    21   ar
     9    21    22   ar
    10    22    23   ar
    11     2     3    1
    12     3     4    2
    13     3     5    1
    14     5     6    2
    15    10    11    1
    16    11    12   ar
    17    12    13   ar
    18    13    14   ar
    19    14    15   ar
    20    15    16   ar
    21     5     1    1
    22    16    11   ar
    23    23    19   ar
    24     7     8    1
    25    17    18    1
    26    23    24    1
@<TRIPOS>MOLECULE
*****
 24 26 0 0 0
SMALL
GASTEIGER

@<TRIPOS>ATOM
      1 C          62.7372   85.7996   12.5499 C.2     1  UNL1        0.1045
      2 C          63.3323   84.4227   12.5624 C.2     1  UNL1        0.1087
      3 C          64.3003   84.8507   13.6254 C.2     1  UNL1        0.2501
      4 O          65.4055   84.1797   14.3858 O.2     1  UNL1       -0.2817
      5 C          63.7051   86.2275   13.6130 C.2     1  UNL1        0.2498
      6 O          63.9688   87.5037   14.3558 O.2     1  UNL1       -0.2817
      7 N          61.6320   86.4705   11.7895 N.pl3   1  UNL1       -0.3270
      8 H          60.7162   86.4718   12.1507 H       1  UNL1        0.1472
      9 C          62.3636   88.5728   10.4496 C.3     1  UNL1        0.0261
     10 C          61.9222   87.1395   10.4787 C.3     1  UNL1        0.0920
     11 C          61.7709   86.3752    9.1969 C.ar    1  UNL1       -0.0046
     12 C          62.9384   85.6235    8.6296 C.ar    1  UNL1       -0.0027
     13 C          62.7871   84.8592    7.3479 C.ar    1  UNL1       -0.0003
     14 C          61.4682   84.8467    6.6334 C.ar    1  UNL1       -0.0000
     15 C          60.3007   85.5984    7.2006 C.ar    1  UNL1       -0.0003
     16 C          60.4520   86.3626    8.4824 C.ar    1  UNL1       -0.0027
     17 N          63.0687   83.1465   11.8194 N.pl3   1  UNL1       -0.2947
     18 H          63.2100   83.1054   10.8460 H       1  UNL1        0.1537
     19 C          62.5896   81.9330   12.5597 C.ar    1  UNL1        0.1271
     20 C          61.8168   81.9325   13.8454 C.ar    1  UNL1        0.0562
     21 C          61.5489   80.5061   14.2245 C.ar    1  UNL1        0.1228
     22 N          62.1561   79.6252   13.1732 N.ar    1  UNL1       -0.1700
     23 N          62.7993   80.5070   12.1443 N.ar    1  UNL1       -0.2628
     24 H          63.2755   80.2032   11.3380 H       1  UNL1        0.1903
@<TRIPOS>BOND
     1    10     9    1
     2    10     7    1
     3     7     1    1
     4     1     2    2
     5     2    17    1
     6    17    19    1
     7    19    20   ar
     8    20    21   ar
     9    21    22   ar
    10    22    23   ar
    11     2     3    1
    12     3     4    2
    13     3     5    1
    14     5     6    2
    15    10    11    1
    16    11    12   ar
    17    12    13   ar
    18    13    14   ar
    19    14    15   ar
    20    15    16   ar
    21     5     1    1
    22    16    11   ar
    23    23    19   ar
    24     7     8    1
    25    17    18    1
    26    23    24    1
@<TRIPOS>MOLECULE
*****
 24 26 0 0 0
SMALL
GASTEIGER

@<TRIPOS>ATOM
      1 C          62.0101   87.3931   10.6247 C.2     1  UNL1        0.1045
      2 C          61.9203   85.9595   10.1927 C.2     1  UNL1        0.1087
      3 C          61.1116   86.3701    8.9980 C.2     1  UNL1        0.2501
      4 O          60.4762   85.6467    7.8477 O.2     1  UNL1       -0.2817
      5 C          61.2014   87.8038    9.4300 C.2     1  UNL1        0.2498
      6 O          60.6930   89.1079    8.8907 O.2     1  UNL1       -0.2817
      7 N          62.6454   88.1164   11.7749 N.pl3   1  UNL1       -0.3270
      8 H          63.2618   87.6394   12.3764 H       1  UNL1        0.1472
      9 C          60.9259   90.0103   12.2293 C.3     1  UNL1        0.0261
     10 C          62.3417   89.5666   12.0088 C.3     1  UNL1        0.0920
     11 C          63.4538   90.5732   12.0223 C.ar    1  UNL1       -0.0046
     12 C          64.2456   90.7993   13.2760 C.ar    1  UNL1       -0.0027
     13 C          65.3576   91.8058   13.2894 C.ar    1  UNL1       -0.0003
     14 C          65.6779   92.5862   12.0491 C.ar    1  UNL1       -0.0000
     15 C          64.8861   92.3601   10.7954 C.ar    1  UNL1       -0.0003
     16 C          63.7741   91.3536   10.7820 C.ar    1  UNL1       -0.0027
     17 N          62.4287   84.6553   10.7321 N.pl3   1  UNL1       -0.2947
     18 H          62.4259   83.8524   10.1624 H       1  UNL1        0.1537
     19 C          62.9414   84.5746   12.1394 C.ar    1  UNL1        0.1271
     20 C          64.2263   83.9342   12.5744 C.ar    1  UNL1        0.0562
     21 C          64.3382   84.0840   14.0627 C.ar    1  UNL1        0.1228
     22 N          63.1225   84.8169   14.5476 N.ar    1  UNL1       -0.1700
     23 N          62.2593   85.1201   13.3589 N.ar    1  UNL1       -0.2628
     24 H          61.3965   85.5939   13.3762 H       1  UNL1        0.1903
@<TRIPOS>BOND
     1    10     9    1
     2    10     7    1
     3     7     1    1
     4     1     2    2
     5     2    17    1
     6    17    19    1
     7    19    20   ar
     8    20    21   ar
     9    21    22   ar
    10    22    23   ar
    11     2     3    1
    12     3     4    2
    13     3     5    1
    14     5     6    2
    15    10    11    1
    16    11    12   ar
    17    12    13   ar
    18    13    14   ar
    19    14    15   ar
    20    15    16   ar
    21     5     1    1
    22    16    11   ar
    23    23    19   ar
    24     7     8    1
    25    17    18    1
    26    23    24    1
@<TRIPOS>MOLECULE
*****
 24 26 0 0 0
SMALL
GASTEIGER

@<TRIPOS>ATOM
      1 C          61.5115   89.4082   11.4044 C.2     1  UNL1        0.1045
      2 C          61.4137   88.1772   10.5527 C.2     1  UNL1        0.1087
      3 C          60.0431   88.5939   10.1079 C.2     1  UNL1        0.2501
      4 O          59.0048   88.0181    9.1912 O.2     1  UNL1       -0.2817
      5 C          60.1409   89.8249   10.9595 C.2     1  UNL1        0.2498
      6 O          59.2409   90.9899   11.2471 O.2     1  UNL1       -0.2817
      7 N          62.5498   89.9839   12.3211 N.pl3   1  UNL1       -0.3270
      8 H          62.5850   89.7021   13.2637 H       1  UNL1        0.1472
      9 C          63.4897   91.4083   10.3621 C.3     1  UNL1        0.0261
     10 C          63.5345   90.9891   11.8016 C.3     1  UNL1        0.0920
     11 C          64.5642   91.5751   12.7217 C.ar    1  UNL1       -0.0046
     12 C          64.7501   91.0078   14.0977 C.ar    1  UNL1       -0.0027
     13 C          65.7797   91.5938   15.0177 C.ar    1  UNL1       -0.0003
     14 C          66.6234   92.7472   14.5617 C.ar    1  UNL1       -0.0000
     15 C          66.4375   93.3145   13.1857 C.ar    1  UNL1       -0.0003
     16 C          65.4079   92.7285   12.2657 C.ar    1  UNL1       -0.0027
     17 N          62.3137   87.0122   10.2651 N.pl3   1  UNL1       -0.2947
     18 H          63.0198   86.7658   10.9054 H       1  UNL1        0.1537
     19 C          62.1380   86.2226    9.0019 C.ar    1  UNL1        0.1271
     20 C          63.1686   85.3389    8.3639 C.ar    1  UNL1        0.0562
     21 C          62.5683   84.7483    7.1226 C.ar    1  UNL1        0.1228
     22 N          61.1667   85.2669    6.9934 N.ar    1  UNL1       -0.1700
     23 N          60.9008   86.1781    8.1549 N.ar    1  UNL1       -0.2628
     24 H          60.0616   86.6620    8.3305 H       1  UNL1        0.1903
@<TRIPOS>BOND
     1    10     9    1
     2    10     7    1
     3     7     1    1
     4     1     2    2
     5     2    17    1
     6    17    19    1
     7    19    20   ar
     8    20    21   ar
     9    21    22   ar
    10    22    23   ar
    11     2     3    1
    12     3     4    2
    13     3     5    1
    14     5     6    2
    15    10    11    1
    16    11    12   ar
    17    12    13   ar
    18    13    14   ar
    19    14    15   ar
    20    15    16   ar
    21     5     1    1
    22    16    11   ar
    23    23    19   ar
    24     7     8    1
    25    17    18    1
    26    23    24    1
@<TRIPOS>MOLECULE
*****
 24 26 0 0 0
SMALL
GASTEIGER

@<TRIPOS>ATOM
      1 C          61.7261   88.6463   10.7579 C.2     1  UNL1        0.1045
      2 C          61.5685   87.5218    9.7777 C.2     1  UNL1        0.1087
      3 C          60.1521   87.9439    9.5213 C.2     1  UNL1        0.2501
      4 O          59.0391   87.4471    8.6468 O.2     1  UNL1       -0.2817
      5 C          60.3097   89.0683   10.5015 C.2     1  UNL1        0.2498
      6 O          59.4196   90.1618   11.0133 O.2     1  UNL1       -0.2817
      7 N          62.8390   89.1430   11.6323 N.pl3   1  UNL1       -0.3270
      8 H          63.1968   88.5687   12.3475 H       1  UNL1        0.1472
      9 C          63.0720   91.2777   10.1699 C.3     1  UNL1        0.0261
     10 C          63.4068   90.5145   11.4170 C.3     1  UNL1        0.0920
     11 C          64.3095   91.1230   12.4491 C.ar    1  UNL1       -0.0046
     12 C          65.1620   92.3057   12.0963 C.ar    1  UNL1       -0.0027
     13 C          66.0646   92.9141   13.1283 C.ar    1  UNL1       -0.0003
     14 C          66.1147   92.3398   14.5131 C.ar    1  UNL1       -0.0000
     15 C          65.2622   91.1572   14.8659 C.ar    1  UNL1       -0.0003
     16 C          64.3596   90.5487   13.8339 C.ar    1  UNL1       -0.0027
     17 N          62.4587   86.4283    9.2659 N.pl3   1  UNL1       -0.2947
     18 H          62.8478   86.4920    8.3638 H       1  UNL1        0.1537
     19 C          62.7559   85.2377   10.1285 C.ar    1  UNL1        0.1271
     20 C          62.2956   85.0361   11.5419 C.ar    1  UNL1        0.0562
     21 C          62.8208   83.7135   12.0162 C.ar    1  UNL1        0.1228
     22 N          63.6057   83.0977   10.8959 N.ar    1  UNL1       -0.1700
     23 N          63.5655   84.0398    9.7293 N.ar    1  UNL1       -0.2628
     24 H          63.9951   83.8969    8.8551 H       1  UNL1        0.1903
@<TRIPOS>BOND
     1    10     9    1
     2    10     7    1
     3     7     1    1
     4     1     2    2
     5     2    17    1
     6    17    19    1
     7    19    20   ar
     8    20    21   ar
     9    21    22   ar
    10    22    23   ar
    11     2     3    1
    12     3     4    2
    13     3     5    1
    14     5     6    2
    15    10    11    1
    16    11    12   ar
    17    12    13   ar
    18    13    14   ar
    19    14    15   ar
    20    15    16   ar
    21     5     1    1
    22    16    11   ar
    23    23    19   ar
    24     7     8    1
    25    17    18    1
    26    23    24    1
@<TRIPOS>MOLECULE
*****
 24 26 0 0 0
SMALL
GASTEIGER

@<TRIPOS>ATOM
      1 C          71.4226   69.7753   16.6522 C.2     1  UNL1        0.1045
      2 C          71.3474   71.2676   16.7839 C.2     1  UNL1        0.1087
      3 C          70.6520   71.1161   18.1043 C.2     1  UNL1        0.2501
      4 O          70.1072   72.0642   19.1311 O.2     1  UNL1       -0.2817
      5 C          70.7273   69.6238   17.9726 C.2     1  UNL1        0.2498
      6 O          70.2888   68.4614   18.8132 O.2     1  UNL1       -0.2817
      7 N          71.9674   68.8273   15.6254 N.pl3   1  UNL1       -0.3270
      8 H          72.1838   67.9004   15.8770 H       1  UNL1        0.1472
      9 C          73.5702   69.3513   13.6490 C.3     1  UNL1        0.0261
     10 C          72.1826   69.2914   14.2154 C.3     1  UNL1        0.0920
     11 C          71.0100   69.6957   13.3717 C.ar    1  UNL1       -0.0046
     12 C          71.0184   71.0155   12.6590 C.ar    1  UNL1       -0.0027
     13 C          69.8459   71.4197   11.8154 C.ar    1  UNL1       -0.0003
     14 C          68.6650   70.5041   11.6844 C.ar    1  UNL1       -0.0000
     15 C          68.6566   69.1843   12.3972 C.ar    1  UNL1       -0.0003
     16 C          69.8291   68.7801   13.2408 C.ar    1  UNL1       -0.0027
     17 N          71.7859   72.4300   15.9432 N.pl3   1  UNL1       -0.2947
     18 H          72.6557   72.4041   15.4827 H       1  UNL1        0.1537
     19 C          70.8992   73.6319   15.8042 C.ar    1  UNL1        0.1271
     20 C          71.2033   74.8642   15.0048 C.ar    1  UNL1        0.0562
     21 C          70.0447   75.8064   15.1468 C.ar    1  UNL1        0.1228
     22 N          69.0246   75.1564   16.0340 N.ar    1  UNL1       -0.1700
     23 N          69.5528   73.8125   16.4403 N.ar    1  UNL1       -0.2628
     24 H          69.0959   73.1630   17.0222 H       1  UNL1        0.1903
@<TRIPOS>BOND
     1    10     9    1
     2    10     7    1
     3     7     1    1
     4     1     2    2
     5     2    17    1
     6    17    19    1
     7    19    20   ar
     8    20    21   ar
     9    21    22   ar
    10    22    23   ar
    11     2     3    1
    12     3     4    2
    13     3     5    1
    14     5     6    2
    15    10    11    1
    16    11    12   ar
    17    12    13   ar
    18    13    14   ar
    19    14    15   ar
    20    15    16   ar
    21     5     1    1
    22    16    11   ar
    23    23    19   ar
    24     7     8    1
    25    17    18    1
    26    23    24    1
