@<TRIPOS>MOLECULE
*****
 65 72 0 0 0
SMALL
GASTEIGER

@<TRIPOS>ATOM
      1 N          65.5029   89.8910   13.8348 N.3     1  UNL1       -0.1862
      2 C          65.9274   88.7728   14.7400 C.3     1  UNL1        0.1775
      3 C          65.1687   87.4789   14.7403 C.2     1  UNL1        0.2452
      4 O          65.5934   86.3607   15.6456 O.2     1  UNL1       -0.2732
      5 N          63.9855   87.3030   13.8354 N.am    1  UNL1       -0.2541
      6 C          63.2268   86.0090   13.8358 C.3     1  UNL1        0.1577
      7 C          62.0435   85.8332   12.9309 C.2     1  UNL1        0.2445
      8 O          61.2848   84.5392   12.9312 O.2     1  UNL1       -0.2731
      9 N          61.6189   86.9513   12.0256 N.am    1  UNL1       -0.2705
     10 C          62.3776   88.2453   12.0253 C.3     1  UNL1        0.1359
     11 C          63.5609   88.4211   12.9302 C.3     1  UNL1        0.1908
     12 N          64.3196   89.7151   12.9299 N.am    1  UNL1       -0.1863
     13 C          63.8949   90.8333   12.0246 C.2     1  UNL1        0.3191
     14 O          62.7117   90.6574   11.1197 O.2     1  UNL1       -0.2512
     15 N          64.6536   92.1272   12.0243 N.am    1  UNL1       -0.2836
     16 H          65.4303   92.2427   12.6182 H       1  UNL1        0.1513
     17 C          66.2615   91.1849   13.8345 C.3     1  UNL1        0.1188
     18 C          66.9599   92.6788   15.8421 C.2     1  UNL1       -0.0034
     19 C          67.2115   91.4977   14.9524 C.2     1  UNL1       -0.0071
     20 C          63.6514   84.8909   14.7410 C.3     1  UNL1        0.0556
     21 C          63.3732   83.4679   14.3566 C.ar    1  UNL1       -0.0198
     22 C          62.1779   82.7586   14.9206 C.ar    1  UNL1       -0.0011
     23 C          61.8997   81.3357   14.5362 C.ar    1  UNL1        0.0363
     24 C          62.8169   80.6220   13.5878 C.ar    1  UNL1        0.1337
     25 O          62.5387   79.1990   13.2034 O.3     1  UNL1       -0.5055
     26 C          64.0122   81.3313   13.0238 C.ar    1  UNL1        0.0363
     27 C          64.2904   82.7542   13.4082 C.ar    1  UNL1       -0.0011
     28 H          61.7920   78.7559   13.5558 H       1  UNL1        0.2922
     29 C          60.4356   86.7755   11.1207 C.3     1  UNL1        0.1217
     30 C          60.5729   87.0292    9.6486 C.ar    1  UNL1        0.0135
     31 C          61.0981   85.9511    8.7476 C.ar    1  UNL1       -0.0012
     32 C          61.2353   86.2047    7.2756 C.ar    1  UNL1       -0.0002
     33 C          60.8474   87.5364    6.7047 C.ar    1  UNL1        0.0015
     34 C          60.3222   88.6145    7.6057 C.ar    1  UNL1        0.0170
     35 C          59.8632   90.0161    7.3321 C.ar    1  UNL1        0.0186
     36 C          59.4422   90.6286    8.6350 C.ar    1  UNL1        0.0759
     37 N          59.6411   89.6057    9.7138 N.ar    1  UNL1       -0.3242
     38 C          59.3476   89.7944   11.1726 C.3     1  UNL1        0.1305
     39 C          60.1849   88.3609    9.0777 C.ar    1  UNL1        0.0575
     40 C          59.8308   90.6873    5.9909 C.ar    1  UNL1        0.0016
     41 C          61.0989   90.8624    5.2091 C.ar    1  UNL1        0.0013
     42 C          61.0665   91.5335    3.8681 C.ar    1  UNL1        0.0147
     43 C          59.7660   92.0296    3.3088 C.ar    1  UNL1        0.0505
     44 C          58.4979   91.8545    4.0907 C.ar    1  UNL1        0.0147
     45 C          58.5304   91.1833    5.4317 C.ar    1  UNL1        0.0013
     46 N          59.7337   92.7007    1.9678 N.am    1  UNL1       -0.2804
     47 C          60.9329   92.6387    1.0688 C.2     1  UNL1        0.2495
     48 O          62.1645   91.9054    1.5110 O.2     1  UNL1       -0.2698
     49 H          58.9254   93.1820    1.6776 H       1  UNL1        0.1552
     50 C          60.9005   93.3098   -0.2723 C.ar    1  UNL1        0.0538
     51 C          61.9284   94.3463   -0.6172 C.ar    1  UNL1        0.0058
     52 C          61.8961   95.0175   -1.9582 C.ar    1  UNL1        0.0147
     53 C          60.8358   94.6523   -2.9543 C.ar    1  UNL1        0.0479
     54 C          59.8078   93.6158   -2.6094 C.ar    1  UNL1        0.0147
     55 C          59.8401   92.9446   -1.2684 C.ar    1  UNL1        0.0058
     56 N          60.8033   95.3235   -4.2953 N.pl3   1  UNL1       -0.3041
     57 C          59.7215   96.3128   -4.6129 C.3     1  UNL1        0.1122
     58 C          61.8527   95.0054   -5.3189 C.3     1  UNL1        0.1122
     59 C          64.2291   93.2454   11.1190 C.3     1  UNL1        0.1177
     60 C          65.2626   94.0991   10.4459 C.ar    1  UNL1       -0.0025
     61 C          65.0399   95.5757   10.3056 C.ar    1  UNL1       -0.0026
     62 C          66.0735   96.4294    9.6325 C.ar    1  UNL1       -0.0003
     63 C          67.3296   95.8064    9.0998 C.ar    1  UNL1       -0.0000
     64 C          67.5524   94.3297    9.2402 C.ar    1  UNL1       -0.0003
     65 C          66.5188   93.4760    9.9132 C.ar    1  UNL1       -0.0026
@<TRIPOS>BOND
     1    18    19    2
     2    19    17    1
     3    17     1    1
     4     1     2    1
     5     2     3    1
     6     3     4    2
     7     3     5   am
     8     5     6    1
     9     6    20    1
    10    20    21    1
    11    21    22   ar
    12    22    23   ar
    13    23    24   ar
    14    24    25    1
    15    24    26   ar
    16    26    27   ar
    17     6     7    1
    18     7     8    2
    19     7     9   am
    20     9    29    1
    21    29    30    1
    22    30    31   ar
    23    31    32   ar
    24    32    33   ar
    25    33    34   ar
    26    34    35   ar
    27    35    40    1
    28    40    41   ar
    29    41    42   ar
    30    42    43   ar
    31    43    46    1
    32    46    47   am
    33    47    48    2
    34    47    50    1
    35    50    51   ar
    36    51    52   ar
    37    52    53   ar
    38    53    56    1
    39    56    57    1
    40    56    58    1
    41    53    54   ar
    42    54    55   ar
    43    43    44   ar
    44    44    45   ar
    45    35    36   ar
    46    36    37   ar
    47    37    38    1
    48    37    39   ar
    49     9    10    1
    50    11    10    1
    51    11    12    1
    52    12    13   am
    53    13    14    2
    54    13    15   am
    55    15    59    1
    56    59    60    1
    57    60    61   ar
    58    61    62   ar
    59    62    63   ar
    60    63    64   ar
    61    64    65   ar
    62    12     1    1
    63    65    60   ar
    64    11     5    1
    65    27    21   ar
    66    39    30   ar
    67    39    34   ar
    68    45    40   ar
    69    55    50   ar
    70    25    28    1
    71    46    49    1
    72    15    16    1
@<TRIPOS>MOLECULE
*****
 65 72 0 0 0
SMALL
GASTEIGER

@<TRIPOS>ATOM
      1 N          64.4831   83.3592   13.4685 N.3     1  UNL1       -0.1862
      2 C          65.0012   84.1788   14.6130 C.3     1  UNL1        0.1775
      3 C          64.5413   85.5955   14.7896 C.2     1  UNL1        0.2452
      4 O          65.0594   86.4151   15.9342 O.2     1  UNL1       -0.2732
      5 N          63.5633   86.1928   13.8218 N.am    1  UNL1       -0.2541
      6 C          63.1033   87.6095   13.9984 C.3     1  UNL1        0.1577
      7 C          62.1253   88.2068   13.0306 C.2     1  UNL1        0.2445
      8 O          61.6654   89.6236   13.2072 O.2     1  UNL1       -0.2731
      9 N          61.6072   87.3872   11.8860 N.am    1  UNL1       -0.2705
     10 C          62.0671   85.9705   11.7094 C.3     1  UNL1        0.1359
     11 C          63.0452   85.3732   12.6773 C.3     1  UNL1        0.1908
     12 N          63.5051   83.9565   12.5006 N.am    1  UNL1       -0.1863
     13 C          62.9870   83.1369   11.3561 C.2     1  UNL1        0.3191
     14 O          62.0090   83.7341   10.3882 O.2     1  UNL1       -0.2512
     15 N          63.4469   81.7201   11.1794 N.am    1  UNL1       -0.2836
     16 H          64.0888   81.3281   11.8147 H       1  UNL1        0.1513
     17 C          64.9431   81.9424   13.2918 C.3     1  UNL1        0.1188
     18 C          62.7752   80.7447   14.0765 C.2     1  UNL1       -0.0034
     19 C          64.2722   80.8360   14.0505 C.2     1  UNL1       -0.0071
     20 C          63.6214   88.4291   15.1429 C.3     1  UNL1        0.0556
     21 C          64.2425   89.7698   14.8846 C.ar    1  UNL1       -0.0198
     22 C          64.3237   90.7837   15.9871 C.ar    1  UNL1       -0.0011
     23 C          64.9448   92.1244   15.7288 C.ar    1  UNL1        0.0363
     24 C          65.4848   92.4512   14.3681 C.ar    1  UNL1        0.1337
     25 O          66.1059   93.7919   14.1099 O.3     1  UNL1       -0.5055
     26 C          65.4037   91.4373   13.2656 C.ar    1  UNL1        0.0363
     27 C          64.7825   90.0966   13.5239 C.ar    1  UNL1       -0.0011
     28 H          66.1566   94.4253   14.7986 H       1  UNL1        0.2922
     29 C          60.6292   87.9845   10.9182 C.3     1  UNL1        0.1217
     30 C          61.0729   89.0593    9.9706 C.ar    1  UNL1        0.0135
     31 C          62.1272   90.0404   10.3900 C.ar    1  UNL1       -0.0012
     32 C          62.5710   91.1152    9.4424 C.ar    1  UNL1       -0.0002
     33 C          61.9605   91.2089    8.0755 C.ar    1  UNL1        0.0015
     34 C          60.9062   90.2277    7.6562 C.ar    1  UNL1        0.0170
     35 C          60.1292   90.0726    6.3825 C.ar    1  UNL1        0.0186
     36 C          59.2052   88.9019    6.5429 C.ar    1  UNL1        0.0759
     37 N          59.4112   88.3336    7.9156 N.ar    1  UNL1       -0.3242
     38 C          58.6921   87.1530    8.4981 C.3     1  UNL1        0.1305
     39 C          60.4624   89.1530    8.6037 C.ar    1  UNL1        0.0575
     40 C          60.2543   90.9365    5.1626 C.ar    1  UNL1        0.0016
     41 C          61.5710   91.0454    4.4525 C.ar    1  UNL1        0.0013
     42 C          61.6960   91.9093    3.2326 C.ar    1  UNL1        0.0147
     43 C          60.5043   92.6642    2.7229 C.ar    1  UNL1        0.0505
     44 C          59.1875   92.5553    3.4330 C.ar    1  UNL1        0.0147
     45 C          59.0626   91.6914    4.6528 C.ar    1  UNL1        0.0013
     46 N          60.6294   93.5281    1.5030 N.am    1  UNL1       -0.2804
     47 C          60.4106   92.9389    0.1410 C.2     1  UNL1        0.2495
     48 O          60.0667   91.4858   -0.0011 O.2     1  UNL1       -0.2698
     49 H          60.8551   94.4818    1.5963 H       1  UNL1        0.1552
     50 C          60.5357   93.8029   -1.0788 C.ar    1  UNL1        0.0538
     51 C          59.7513   93.4739   -2.3144 C.ar    1  UNL1        0.0058
     52 C          59.8764   94.3378   -3.5342 C.ar    1  UNL1        0.0147
     53 C          60.7857   95.5306   -3.5185 C.ar    1  UNL1        0.0479
     54 C          61.5700   95.8596   -2.2829 C.ar    1  UNL1        0.0147
     55 C          61.4450   94.9957   -1.0630 C.ar    1  UNL1        0.0058
     56 N          60.9108   96.3946   -4.7383 N.pl3   1  UNL1       -0.3041
     57 C          59.6835   96.7985   -5.5003 C.3     1  UNL1        0.1122
     58 C          62.2631   96.8546   -5.1961 C.3     1  UNL1        0.1122
     59 C          62.9288   80.9006   10.0349 C.3     1  UNL1        0.1177
     60 C          63.1228   79.4132   10.0292 C.ar    1  UNL1       -0.0025
     61 C          63.9855   78.7734    8.9822 C.ar    1  UNL1       -0.0026
     62 C          64.1795   77.2860    8.9765 C.ar    1  UNL1       -0.0003
     63 C          63.5109   76.4384   10.0178 C.ar    1  UNL1       -0.0000
     64 C          62.6481   77.0782   11.0650 C.ar    1  UNL1       -0.0003
     65 C          62.4541   78.5656   11.0707 C.ar    1  UNL1       -0.0026
@<TRIPOS>BOND
     1    18    19    2
     2    19    17    1
     3    17     1    1
     4     1     2    1
     5     2     3    1
     6     3     4    2
     7     3     5   am
     8     5     6    1
     9     6    20    1
    10    20    21    1
    11    21    22   ar
    12    22    23   ar
    13    23    24   ar
    14    24    25    1
    15    24    26   ar
    16    26    27   ar
    17     6     7    1
    18     7     8    2
    19     7     9   am
    20     9    29    1
    21    29    30    1
    22    30    31   ar
    23    31    32   ar
    24    32    33   ar
    25    33    34   ar
    26    34    35   ar
    27    35    40    1
    28    40    41   ar
    29    41    42   ar
    30    42    43   ar
    31    43    46    1
    32    46    47   am
    33    47    48    2
    34    47    50    1
    35    50    51   ar
    36    51    52   ar
    37    52    53   ar
    38    53    56    1
    39    56    57    1
    40    56    58    1
    41    53    54   ar
    42    54    55   ar
    43    43    44   ar
    44    44    45   ar
    45    35    36   ar
    46    36    37   ar
    47    37    38    1
    48    37    39   ar
    49     9    10    1
    50    11    10    1
    51    11    12    1
    52    12    13   am
    53    13    14    2
    54    13    15   am
    55    15    59    1
    56    59    60    1
    57    60    61   ar
    58    61    62   ar
    59    62    63   ar
    60    63    64   ar
    61    64    65   ar
    62    12     1    1
    63    65    60   ar
    64    11     5    1
    65    27    21   ar
    66    39    30   ar
    67    39    34   ar
    68    45    40   ar
    69    55    50   ar
    70    25    28    1
    71    46    49    1
    72    15    16    1
