@<TRIPOS>MOLECULE
*****
 31 34 0 0 0
SMALL
GASTEIGER

@<TRIPOS>ATOM
      1 C          63.9467   88.7466   15.6144 C.3     1  UNL1        0.0591
      2 C          62.8987   89.3380   16.5098 C.3     1  UNL1        0.2092
      3 O          62.1973   88.2117   17.2095 O.3     1  UNL1       -0.4485
      4 C          62.8120   86.9240   16.7464 C.2     1  UNL1        0.3169
      5 O          62.4151   85.5475   17.1911 O.2     1  UNL1       -0.2501
      6 C          63.8931   87.2547   15.7606 C.3     1  UNL1        0.1073
      7 C          64.8839   89.5125   14.7283 C.3     1  UNL1        0.0308
      8 C          62.7615   89.9907   11.4091 C.ar    1  UNL1        0.1749
      9 C          63.2527   89.4237   12.7081 C.ar    1  UNL1        0.0360
     10 C          64.3926   90.0795   13.4294 C.ar    1  UNL1       -0.0158
     11 C          65.0414   91.3024   12.8518 C.ar    1  UNL1        0.0360
     12 C          64.5502   91.8695   11.5528 C.ar    1  UNL1        0.1749
     13 C          63.4102   91.2136   10.8315 C.ar    1  UNL1        0.2024
     14 O          62.9191   91.7806    9.5326 O.3     1  UNL1       -0.5009
     15 H          63.3243   92.5445    9.1718 H       1  UNL1        0.2924
     16 C          60.2444   89.9238   10.7689 C.3     1  UNL1        0.2526
     17 O          61.6215   89.3348   10.6878 O.3     1  UNL1       -0.4683
     18 O          65.1990   93.0924   10.9753 O.3     1  UNL1       -0.4683
     19 C          66.0821   93.9490   11.8333 C.3     1  UNL1        0.2526
     20 C          64.7673   86.2668   15.0464 C.3     1  UNL1        0.0378
     21 C          64.1486   85.1572   14.2487 C.ar    1  UNL1       -0.0154
     22 C          63.4557   85.4608   12.9536 C.ar    1  UNL1        0.0360
     23 C          62.8371   84.3512   12.1559 C.ar    1  UNL1        0.1753
     24 C          62.9115   82.9381   12.6535 C.ar    1  UNL1        0.2100
     25 C          63.6045   82.6345   13.9487 C.ar    1  UNL1        0.1792
     26 C          64.2231   83.7441   14.7464 C.ar    1  UNL1        0.0361
     27 O          63.5198   81.1556   14.1842 O.3     1  UNL1       -0.4345
     28 C          62.7745   80.5451   13.0345 C.3     1  UNL1        0.4295
     29 O          62.3985   81.6468   12.0885 O.3     1  UNL1       -0.4315
     30 O          62.1440   84.6548   10.8607 O.3     1  UNL1       -0.4683
     31 C          61.3868   85.9394   10.6984 C.3     1  UNL1        0.2526
@<TRIPOS>BOND
     1    16    17    1
     2    17     8    1
     3     8     9   ar
     4     9    10   ar
     5    10     7    1
     6     1     7    1
     7     1     2    1
     8     2     3    1
     9     3     4    1
    10     4     5    2
    11     4     6    1
    12     6    20    1
    13    20    21    1
    14    21    22   ar
    15    22    23   ar
    16    23    30    1
    17    30    31    1
    18    23    24   ar
    19    24    25   ar
    20    25    26   ar
    21    25    27    1
    22    27    28    1
    23    28    29    1
    24    10    11   ar
    25    11    12   ar
    26    12    18    1
    27    18    19    1
    28    12    13   ar
    29    13    14    1
    30    13     8   ar
    31     6     1    1
    32    26    21   ar
    33    29    24    1
    34    14    15    1
@<TRIPOS>MOLECULE
*****
 31 34 0 0 0
SMALL
GASTEIGER

@<TRIPOS>ATOM
      1 C          63.9409   88.6921   15.6375 C.3     1  UNL1        0.0591
      2 C          62.8894   89.2712   16.5370 C.3     1  UNL1        0.2092
      3 O          62.1765   88.1348   17.2082 O.3     1  UNL1       -0.4485
      4 C          62.7874   86.8534   16.7235 C.2     1  UNL1        0.3169
      5 O          62.3795   85.4704   17.1369 O.2     1  UNL1       -0.2501
      6 C          63.8778   87.1979   15.7528 C.3     1  UNL1        0.1073
      7 C          64.8889   89.4706   14.7743 C.3     1  UNL1        0.0308
      8 C          64.5569   91.9020   11.6553 C.ar    1  UNL1        0.1749
      9 C          65.0317   91.3175   12.9526 C.ar    1  UNL1        0.0360
     10 C          64.4142   90.0552   13.4770 C.ar    1  UNL1       -0.0158
     11 C          63.3219   89.3773   12.7042 C.ar    1  UNL1        0.0360
     12 C          62.8471   89.9618   11.4068 C.ar    1  UNL1        0.1749
     13 C          63.4646   91.2242   10.8824 C.ar    1  UNL1        0.2024
     14 O          62.9899   91.8087    9.5851 O.3     1  UNL1       -0.5009
     15 H          62.3075   91.3852    9.1023 H       1  UNL1        0.2924
     16 C          66.4211   93.1003   10.2991 C.3     1  UNL1        0.2526
     17 O          65.1744   93.1644   11.1309 O.3     1  UNL1       -0.4683
     18 O          61.7548   89.2838   10.6340 O.3     1  UNL1       -0.4683
     19 C          60.3419   89.7753   10.7442 C.3     1  UNL1        0.2526
     20 C          64.7518   86.2199   15.0250 C.3     1  UNL1        0.0378
     21 C          64.1332   85.1072   14.2316 C.ar    1  UNL1       -0.0154
     22 C          63.4173   85.4090   12.9486 C.ar    1  UNL1        0.0360
     23 C          62.7988   84.2964   12.1551 C.ar    1  UNL1        0.1753
     24 C          62.8962   82.8820   12.6448 C.ar    1  UNL1        0.2100
     25 C          63.6121   82.5801   13.9279 C.ar    1  UNL1        0.1792
     26 C          64.2307   83.6927   14.7213 C.ar    1  UNL1        0.0361
     27 O          63.5472   81.0992   14.1577 O.3     1  UNL1       -0.4345
     28 C          62.7912   80.4858   13.0165 C.3     1  UNL1        0.4295
     29 O          62.3888   81.5876   12.0816 O.3     1  UNL1       -0.4315
     30 O          62.0828   84.5983   10.8721 O.3     1  UNL1       -0.4683
     31 C          61.4188   85.9294   10.6789 C.3     1  UNL1        0.2526
@<TRIPOS>BOND
     1    16    17    1
     2    17     8    1
     3     8     9   ar
     4     9    10   ar
     5    10     7    1
     6     1     7    1
     7     1     2    1
     8     2     3    1
     9     3     4    1
    10     4     5    2
    11     4     6    1
    12     6    20    1
    13    20    21    1
    14    21    22   ar
    15    22    23   ar
    16    23    30    1
    17    30    31    1
    18    23    24   ar
    19    24    25   ar
    20    25    26   ar
    21    25    27    1
    22    27    28    1
    23    28    29    1
    24    10    11   ar
    25    11    12   ar
    26    12    18    1
    27    18    19    1
    28    12    13   ar
    29    13    14    1
    30    13     8   ar
    31     6     1    1
    32    26    21   ar
    33    29    24    1
    34    14    15    1
@<TRIPOS>MOLECULE
*****
 31 34 0 0 0
SMALL
GASTEIGER

@<TRIPOS>ATOM
      1 C          61.3004   87.5504    9.5285 C.3     1  UNL1        0.0591
      2 C          59.8321   87.2456    9.4949 C.3     1  UNL1        0.2092
      3 O          59.0905   88.4945    9.8696 O.3     1  UNL1       -0.4485
      4 C          60.1007   89.5713   10.1348 C.2     1  UNL1        0.3169
      5 O          59.7981   90.9836   10.5397 O.2     1  UNL1       -0.2501
      6 C          61.4663   88.9878    9.9240 C.3     1  UNL1        0.1073
      7 C          62.4082   86.5871    9.2207 C.3     1  UNL1        0.0308
      8 C          63.1929   84.9133   12.7325 C.ar    1  UNL1        0.1749
      9 C          62.7692   85.9217   11.7061 C.ar    1  UNL1        0.0360
     10 C          62.8319   85.5787   10.2472 C.ar    1  UNL1       -0.0158
     11 C          63.3183   84.2273    9.8147 C.ar    1  UNL1        0.0360
     12 C          63.7420   83.2188   10.8411 C.ar    1  UNL1        0.1749
     13 C          63.6794   83.5618   12.3001 C.ar    1  UNL1        0.2024
     14 O          64.1031   82.5534   13.3265 O.3     1  UNL1       -0.5009
     15 H          64.4069   81.7092   13.0563 H       1  UNL1        0.2924
     16 C          64.2178   86.0794   14.8157 C.3     1  UNL1        0.2526
     17 O          63.1303   85.2563   14.1914 O.3     1  UNL1       -0.4683
     18 O          64.2284   81.8674   10.4086 O.3     1  UNL1       -0.4683
     19 C          63.2819   80.7042   10.3778 C.3     1  UNL1        0.2526
     20 C          62.7693   89.7142   10.0811 C.3     1  UNL1        0.0378
     21 C          63.1966   90.2042   11.4329 C.ar    1  UNL1       -0.0154
     22 C          64.1492   91.3572   11.5461 C.ar    1  UNL1        0.0360
     23 C          64.5765   91.8472   12.8979 C.ar    1  UNL1        0.1753
     24 C          64.0511   91.1841   14.1365 C.ar    1  UNL1        0.2100
     25 C          63.0985   90.0310   14.0234 C.ar    1  UNL1        0.1792
     26 C          62.6712   89.5410   12.6716 C.ar    1  UNL1        0.0361
     27 O          62.7502   89.5795   15.4108 O.3     1  UNL1       -0.4345
     28 C          63.4877   90.4536   16.3814 C.3     1  UNL1        0.4295
     29 O          64.2917   91.4453   15.5939 O.3     1  UNL1       -0.4315
     30 O          65.5291   93.0003   13.0110 O.3     1  UNL1       -0.4683
     31 C          65.9957   93.7117   11.7756 C.3     1  UNL1        0.2526
@<TRIPOS>BOND
     1    16    17    1
     2    17     8    1
     3     8     9   ar
     4     9    10   ar
     5    10     7    1
     6     1     7    1
     7     1     2    1
     8     2     3    1
     9     3     4    1
    10     4     5    2
    11     4     6    1
    12     6    20    1
    13    20    21    1
    14    21    22   ar
    15    22    23   ar
    16    23    30    1
    17    30    31    1
    18    23    24   ar
    19    24    25   ar
    20    25    26   ar
    21    25    27    1
    22    27    28    1
    23    28    29    1
    24    10    11   ar
    25    11    12   ar
    26    12    18    1
    27    18    19    1
    28    12    13   ar
    29    13    14    1
    30    13     8   ar
    31     6     1    1
    32    26    21   ar
    33    29    24    1
    34    14    15    1
@<TRIPOS>MOLECULE
*****
 31 34 0 0 0
SMALL
GASTEIGER

@<TRIPOS>ATOM
      1 C          61.2825   87.7132    9.8496 C.3     1  UNL1        0.0591
      2 C          59.8238   87.3843    9.9674 C.3     1  UNL1        0.2092
      3 O          59.0957   88.6375   10.3538 O.3     1  UNL1       -0.4485
      4 C          60.1045   89.7410   10.4748 C.2     1  UNL1        0.3169
      5 O          59.8130   91.1657   10.8429 O.2     1  UNL1       -0.2501
      6 C          61.4560   89.1697   10.1633 C.3     1  UNL1        0.1073
      7 C          62.3758   86.7540    9.4827 C.3     1  UNL1        0.0308
      8 C          63.6881   83.2708   10.8592 C.ar    1  UNL1        0.1749
      9 C          63.2977   84.3624    9.9075 C.ar    1  UNL1        0.0360
     10 C          62.7663   85.6623   10.4344 C.ar    1  UNL1       -0.0158
     11 C          62.6253   85.8707   11.9132 C.ar    1  UNL1        0.0360
     12 C          63.0158   84.7790   12.8650 C.ar    1  UNL1        0.1749
     13 C          63.5472   83.4790   12.3380 C.ar    1  UNL1        0.2024
     14 O          63.9376   82.3874   13.2898 O.3     1  UNL1       -0.5009
     15 H          63.8496   82.5175   14.2135 H       1  UNL1        0.2924
     16 C          63.3316   80.7629   10.2816 C.3     1  UNL1        0.2526
     17 O          64.2195   81.9708   10.3323 O.3     1  UNL1       -0.4683
     18 O          62.8748   84.9873   14.3438 O.3     1  UNL1       -0.4683
     19 C          64.0761   85.3419   15.1691 C.3     1  UNL1        0.2526
     20 C          62.7533   89.9228   10.1650 C.3     1  UNL1        0.0378
     21 C          63.4159   90.2723   11.4647 C.ar    1  UNL1       -0.0154
     22 C          63.2666   89.3657   12.6502 C.ar    1  UNL1        0.0360
     23 C          63.9292   89.7152   13.9498 C.ar    1  UNL1        0.1753
     24 C          64.7410   90.9714   14.0637 C.ar    1  UNL1        0.2100
     25 C          64.8902   91.8780   12.8781 C.ar    1  UNL1        0.1792
     26 C          64.2277   91.5286   11.5786 C.ar    1  UNL1        0.0361
     27 O          65.7459   93.0399   13.2879 O.3     1  UNL1       -0.4345
     28 C          66.1255   92.8513   14.7267 C.3     1  UNL1        0.4295
     29 O          65.5044   91.5729   15.2063 O.3     1  UNL1       -0.4315
     30 O          63.7799   88.8085   15.1354 O.3     1  UNL1       -0.4683
     31 C          63.1615   89.3244   16.4009 C.3     1  UNL1        0.2526
@<TRIPOS>BOND
     1    16    17    1
     2    17     8    1
     3     8     9   ar
     4     9    10   ar
     5    10     7    1
     6     1     7    1
     7     1     2    1
     8     2     3    1
     9     3     4    1
    10     4     5    2
    11     4     6    1
    12     6    20    1
    13    20    21    1
    14    21    22   ar
    15    22    23   ar
    16    23    30    1
    17    30    31    1
    18    23    24   ar
    19    24    25   ar
    20    25    26   ar
    21    25    27    1
    22    27    28    1
    23    28    29    1
    24    10    11   ar
    25    11    12   ar
    26    12    18    1
    27    18    19    1
    28    12    13   ar
    29    13    14    1
    30    13     8   ar
    31     6     1    1
    32    26    21   ar
    33    29    24    1
    34    14    15    1
@<TRIPOS>MOLECULE
*****
 31 34 0 0 0
SMALL
GASTEIGER

@<TRIPOS>ATOM
      1 C          61.2849   87.4950    9.5029 C.3     1  UNL1        0.0591
      2 C          59.8146   87.2004    9.4662 C.3     1  UNL1        0.2092
      3 O          59.0806   88.4580    9.8267 O.3     1  UNL1       -0.4485
      4 C          60.0974   89.5298   10.0862 C.2     1  UNL1        0.3169
      5 O          59.8035   90.9478   10.4772 O.2     1  UNL1       -0.2501
      6 C          61.4597   88.9347    9.8861 C.3     1  UNL1        0.1073
      7 C          62.3869   86.5211    9.2082 C.3     1  UNL1        0.0308
      8 C          63.7566   83.2018   10.8983 C.ar    1  UNL1        0.1749
      9 C          63.3250   84.1850    9.8510 C.ar    1  UNL1        0.0360
     10 C          62.8186   85.5377   10.2555 C.ar    1  UNL1       -0.0158
     11 C          62.7438   85.9072   11.7073 C.ar    1  UNL1        0.0360
     12 C          63.1754   84.9239   12.7547 C.ar    1  UNL1        0.1749
     13 C          63.6819   83.5711   12.3502 C.ar    1  UNL1        0.2024
     14 O          64.1135   82.5879   13.3975 O.3     1  UNL1       -0.5009
     15 H          64.0668   82.8187   14.3044 H       1  UNL1        0.2924
     16 C          63.3036   80.7082   10.3266 C.3     1  UNL1        0.2526
     17 O          64.2630   81.8490   10.4937 O.3     1  UNL1       -0.4683
     18 O          63.1007   85.2934   14.2066 O.3     1  UNL1       -0.4683
     19 C          64.2519   85.9974   14.8615 C.3     1  UNL1        0.2526
     20 C          62.7672   89.6531   10.0419 C.3     1  UNL1        0.0378
     21 C          63.1886   90.1601   11.3894 C.ar    1  UNL1       -0.0154
     22 C          64.1235   91.3284   11.4924 C.ar    1  UNL1        0.0360
     23 C          64.5449   91.8353   12.8397 C.ar    1  UNL1        0.1753
     24 C          64.0312   91.1739   14.0842 C.ar    1  UNL1        0.2100
     25 C          63.0962   90.0055   13.9812 C.ar    1  UNL1        0.1792
     26 C          62.6748   89.4985   12.6338 C.ar    1  UNL1        0.0361
     27 O          62.7565   89.5596   15.3725 O.3     1  UNL1       -0.4345
     28 C          63.4816   90.4524   16.3354 C.3     1  UNL1        0.4295
     29 O          64.2694   91.4501   15.5391 O.3     1  UNL1       -0.4315
     30 O          65.4799   93.0037   12.9427 O.3     1  UNL1       -0.4683
     31 C          66.2965   93.4178   11.7545 C.3     1  UNL1        0.2526
@<TRIPOS>BOND
     1    16    17    1
     2    17     8    1
     3     8     9   ar
     4     9    10   ar
     5    10     7    1
     6     1     7    1
     7     1     2    1
     8     2     3    1
     9     3     4    1
    10     4     5    2
    11     4     6    1
    12     6    20    1
    13    20    21    1
    14    21    22   ar
    15    22    23   ar
    16    23    30    1
    17    30    31    1
    18    23    24   ar
    19    24    25   ar
    20    25    26   ar
    21    25    27    1
    22    27    28    1
    23    28    29    1
    24    10    11   ar
    25    11    12   ar
    26    12    18    1
    27    18    19    1
    28    12    13   ar
    29    13    14    1
    30    13     8   ar
    31     6     1    1
    32    26    21   ar
    33    29    24    1
    34    14    15    1
@<TRIPOS>MOLECULE
*****
 31 34 0 0 0
SMALL
GASTEIGER

@<TRIPOS>ATOM
      1 C          61.2902   87.7472    9.8883 C.3     1  UNL1        0.0591
      2 C          59.8327   87.4130   10.0066 C.3     1  UNL1        0.2092
      3 O          59.1004   88.6631   10.3953 O.3     1  UNL1       -0.4485
      4 C          60.1055   89.7700   10.5172 C.2     1  UNL1        0.3169
      5 O          59.8092   91.1931   10.8875 O.2     1  UNL1       -0.2501
      6 C          61.4588   89.2039   10.2039 C.3     1  UNL1        0.1073
      7 C          62.3866   86.7924    9.5192 C.3     1  UNL1        0.0308
      8 C          63.0084   84.7815   12.8836 C.ar    1  UNL1        0.1749
      9 C          62.6255   85.8842   11.9416 C.ar    1  UNL1        0.0360
     10 C          62.7695   85.6898   10.4613 C.ar    1  UNL1       -0.0158
     11 C          63.2964   84.3926    9.9230 C.ar    1  UNL1        0.0360
     12 C          63.6793   83.2899   10.8651 C.ar    1  UNL1        0.1749
     13 C          63.5353   83.4843   12.3454 C.ar    1  UNL1        0.2024
     14 O          63.9182   82.3817   13.2875 O.3     1  UNL1       -0.5009
     15 H          64.2473   81.5714   12.9512 H       1  UNL1        0.2924
     16 C          64.0729   85.2679   15.2032 C.3     1  UNL1        0.2526
     17 O          62.8644   84.9760   14.3640 O.3     1  UNL1       -0.4683
     18 O          64.2062   81.9928   10.3267 O.3     1  UNL1       -0.4683
     19 C          63.3269   80.7778   10.3040 C.3     1  UNL1        0.2526
     20 C          62.7534   89.9615   10.2057 C.3     1  UNL1        0.0378
     21 C          63.4246   90.2964   11.5048 C.ar    1  UNL1       -0.0154
     22 C          63.2764   89.3806   12.6834 C.ar    1  UNL1        0.0360
     23 C          63.9475   89.7154   13.9825 C.ar    1  UNL1        0.1753
     24 C          64.7668   90.9661   14.1028 C.ar    1  UNL1        0.2100
     25 C          64.9150   91.8819   12.9242 C.ar    1  UNL1        0.1792
     26 C          64.2439   91.5471   11.6252 C.ar    1  UNL1        0.0361
     27 O          65.7792   93.0356   13.3393 O.3     1  UNL1       -0.4345
     28 C          66.1651   92.8327   14.7745 C.3     1  UNL1        0.4295
     29 O          65.5395   91.5536   15.2464 O.3     1  UNL1       -0.4315
     30 O          63.7994   88.7995   15.1611 O.3     1  UNL1       -0.4683
     31 C          63.1170   89.2837   16.4061 C.3     1  UNL1        0.2526
@<TRIPOS>BOND
     1    16    17    1
     2    17     8    1
     3     8     9   ar
     4     9    10   ar
     5    10     7    1
     6     1     7    1
     7     1     2    1
     8     2     3    1
     9     3     4    1
    10     4     5    2
    11     4     6    1
    12     6    20    1
    13    20    21    1
    14    21    22   ar
    15    22    23   ar
    16    23    30    1
    17    30    31    1
    18    23    24   ar
    19    24    25   ar
    20    25    26   ar
    21    25    27    1
    22    27    28    1
    23    28    29    1
    24    10    11   ar
    25    11    12   ar
    26    12    18    1
    27    18    19    1
    28    12    13   ar
    29    13    14    1
    30    13     8   ar
    31     6     1    1
    32    26    21   ar
    33    29    24    1
    34    14    15    1
@<TRIPOS>MOLECULE
*****
 31 34 0 0 0
SMALL
GASTEIGER

@<TRIPOS>ATOM
      1 C          61.8193   89.4077   10.1181 C.3     1  UNL1        0.0591
      2 C          60.5505   90.1901   10.2854 C.3     1  UNL1        0.2092
      3 O          59.4102   89.3262    9.8342 O.3     1  UNL1       -0.4485
      4 C          59.9743   88.0099    9.3880 C.2     1  UNL1        0.3169
      5 O          59.1877   86.8473    8.8592 O.2     1  UNL1       -0.2501
      6 C          61.4632   88.0602    9.5634 C.3     1  UNL1        0.1073
      7 C          63.2015   89.8883   10.4475 C.3     1  UNL1        0.0308
      8 C          64.8439   91.9303   13.4279 C.ar    1  UNL1        0.1749
      9 C          64.5258   91.4559   12.0409 C.ar    1  UNL1        0.0360
     10 C          63.5197   90.3628   11.8345 C.ar    1  UNL1       -0.0158
     11 C          62.8317   89.7439   13.0151 C.ar    1  UNL1        0.0360
     12 C          63.1499   90.2183   14.4021 C.ar    1  UNL1        0.1749
     13 C          64.1560   91.3115   14.6085 C.ar    1  UNL1        0.2024
     14 O          64.4742   91.7859   15.9955 O.3     1  UNL1       -0.5009
     15 H          64.0445   91.3994   16.7330 H       1  UNL1        0.2924
     16 C          66.2367   93.9129   12.4899 C.3     1  UNL1        0.2526
     17 O          65.8500   93.0235   13.6343 O.3     1  UNL1       -0.4683
     18 O          62.4620   89.5994   15.5827 O.3     1  UNL1       -0.4683
     19 C          63.2313   88.7192   16.5225 C.3     1  UNL1        0.2526
     20 C          62.4268   86.9569    9.2409 C.3     1  UNL1        0.0378
     21 C          62.6618   85.8535   10.2296 C.ar    1  UNL1       -0.0154
     22 C          63.2368   84.5460    9.7717 C.ar    1  UNL1        0.0360
     23 C          63.4718   83.4427   10.7603 C.ar    1  UNL1        0.1753
     24 C          63.1318   83.6468   12.2069 C.ar    1  UNL1        0.2100
     25 C          62.5568   84.9544   12.6649 C.ar    1  UNL1        0.1792
     26 C          62.3218   86.0577   11.6763 C.ar    1  UNL1        0.0361
     27 O          62.3214   84.8647   14.1436 O.3     1  UNL1       -0.4345
     28 C          62.7509   83.5018   14.5995 C.3     1  UNL1        0.4295
     29 O          63.2518   82.7491   13.4026 O.3     1  UNL1       -0.4315
     30 O          64.0468   82.1351   10.3023 O.3     1  UNL1       -0.4683
     31 C          63.2416   80.8760   10.4296 C.3     1  UNL1        0.2526
@<TRIPOS>BOND
     1    16    17    1
     2    17     8    1
     3     8     9   ar
     4     9    10   ar
     5    10     7    1
     6     1     7    1
     7     1     2    1
     8     2     3    1
     9     3     4    1
    10     4     5    2
    11     4     6    1
    12     6    20    1
    13    20    21    1
    14    21    22   ar
    15    22    23   ar
    16    23    30    1
    17    30    31    1
    18    23    24   ar
    19    24    25   ar
    20    25    26   ar
    21    25    27    1
    22    27    28    1
    23    28    29    1
    24    10    11   ar
    25    11    12   ar
    26    12    18    1
    27    18    19    1
    28    12    13   ar
    29    13    14    1
    30    13     8   ar
    31     6     1    1
    32    26    21   ar
    33    29    24    1
    34    14    15    1
@<TRIPOS>MOLECULE
*****
 31 34 0 0 0
SMALL
GASTEIGER

@<TRIPOS>ATOM
      1 C          63.7372   88.7767   15.0015 C.3     1  UNL1        0.0591
      2 C          62.8316   89.5643   15.9013 C.3     1  UNL1        0.2092
      3 O          62.4655   88.6943   17.0672 O.3     1  UNL1       -0.4485
      4 C          63.1450   87.3690   16.8879 C.2     1  UNL1        0.3169
      5 O          63.0543   86.1983   17.8213 O.2     1  UNL1       -0.2501
      6 C          63.9309   87.4200   15.6113 C.3     1  UNL1        0.1073
      7 C          64.3429   89.2609   13.7175 C.3     1  UNL1        0.0308
      8 C          65.4600   92.8173   12.3559 C.ar    1  UNL1        0.1749
      9 C          64.8251   91.4598   12.4205 C.ar    1  UNL1        0.0360
     10 C          64.9777   90.6185   13.6528 C.ar    1  UNL1       -0.0158
     11 C          65.7651   91.1345   14.8206 C.ar    1  UNL1        0.0360
     12 C          66.3999   92.4921   14.7560 C.ar    1  UNL1        0.1749
     13 C          66.2474   93.3335   13.5236 C.ar    1  UNL1        0.2024
     14 O          66.8822   94.6910   13.4590 O.3     1  UNL1       -0.5009
     15 H          67.3741   95.0134   14.1884 H       1  UNL1        0.2924
     16 C          66.4256   93.7390   10.1269 C.3     1  UNL1        0.2526
     17 O          65.3074   93.6587   11.1235 O.3     1  UNL1       -0.4683
     18 O          67.1873   93.0081   15.9238 O.3     1  UNL1       -0.4683
     19 C          68.6305   92.6305   16.0809 C.3     1  UNL1        0.2526
     20 C          64.7642   86.3093   15.0440 C.3     1  UNL1        0.0378
     21 C          64.1110   85.1984   14.2762 C.ar    1  UNL1       -0.0154
     22 C          63.4062   85.4923   12.9852 C.ar    1  UNL1        0.0360
     23 C          62.7530   84.3816   12.2175 C.ar    1  UNL1        0.1753
     24 C          62.8046   82.9768   12.7408 C.ar    1  UNL1        0.2100
     25 C          63.5094   82.6828   14.0319 C.ar    1  UNL1        0.1792
     26 C          64.1626   83.7936   14.7996 C.ar    1  UNL1        0.0361
     27 O          63.3968   81.2106   14.2967 O.3     1  UNL1       -0.4345
     28 C          62.6225   80.5948   13.1693 C.3     1  UNL1        0.4295
     29 O          62.2564   81.6863   12.2077 O.3     1  UNL1       -0.4315
     30 O          62.0482   84.6756   10.9264 O.3     1  UNL1       -0.4683
     31 C          61.3919   86.0080   10.7167 C.3     1  UNL1        0.2526
@<TRIPOS>BOND
     1    16    17    1
     2    17     8    1
     3     8     9   ar
     4     9    10   ar
     5    10     7    1
     6     1     7    1
     7     1     2    1
     8     2     3    1
     9     3     4    1
    10     4     5    2
    11     4     6    1
    12     6    20    1
    13    20    21    1
    14    21    22   ar
    15    22    23   ar
    16    23    30    1
    17    30    31    1
    18    23    24   ar
    19    24    25   ar
    20    25    26   ar
    21    25    27    1
    22    27    28    1
    23    28    29    1
    24    10    11   ar
    25    11    12   ar
    26    12    18    1
    27    18    19    1
    28    12    13   ar
    29    13    14    1
    30    13     8   ar
    31     6     1    1
    32    26    21   ar
    33    29    24    1
    34    14    15    1
@<TRIPOS>MOLECULE
*****
 31 34 0 0 0
SMALL
GASTEIGER

@<TRIPOS>ATOM
      1 C          61.8184   89.3378   10.1413 C.3     1  UNL1        0.0591
      2 C          60.5614   90.1391   10.3086 C.3     1  UNL1        0.2092
      3 O          59.4111   89.3019    9.8334 O.3     1  UNL1       -0.4485
      4 C          59.9572   87.9830    9.3723 C.2     1  UNL1        0.3169
      5 O          59.1562   86.8422    8.8182 O.2     1  UNL1       -0.2501
      6 C          61.4449   88.0052    9.5626 C.3     1  UNL1        0.1073
      7 C          63.2052   89.7896   10.4912 C.3     1  UNL1        0.0308
      8 C          63.1374   90.1543   14.4425 C.ar    1  UNL1        0.1749
      9 C          62.8373   89.6565   13.0597 C.ar    1  UNL1        0.0360
     10 C          63.5052   90.2874   11.8741 C.ar    1  UNL1       -0.0158
     11 C          64.4733   91.4162   12.0712 C.ar    1  UNL1        0.0360
     12 C          64.7733   91.9140   13.4541 C.ar    1  UNL1        0.1749
     13 C          64.1054   91.2831   14.6397 C.ar    1  UNL1        0.2024
     14 O          64.4054   91.7809   16.0225 O.3     1  UNL1       -0.5009
     15 H          65.0101   92.4860   16.1457 H       1  UNL1        0.2924
     16 C          63.2498   88.6192   16.5355 C.3     1  UNL1        0.2526
     17 O          62.4694   89.5234   15.6281 O.3     1  UNL1       -0.4683
     18 O          65.7414   93.0428   13.6512 O.3     1  UNL1       -0.4683
     19 C          66.3083   93.7607   12.4625 C.3     1  UNL1        0.2526
     20 C          62.3928   86.8906    9.2323 C.3     1  UNL1        0.0378
     21 C          62.6582   85.8091   10.2374 C.ar    1  UNL1       -0.0154
     22 C          63.2865   84.5185    9.8021 C.ar    1  UNL1        0.0360
     23 C          63.5519   83.4371   10.8071 C.ar    1  UNL1        0.1753
     24 C          63.1890   83.6463   12.2474 C.ar    1  UNL1        0.2100
     25 C          62.5607   84.9369   12.6827 C.ar    1  UNL1        0.1792
     26 C          62.2953   86.0184   11.6777 C.ar    1  UNL1        0.0361
     27 O          62.3131   84.8569   14.1600 O.3     1  UNL1       -0.4345
     28 C          62.7883   83.5167   14.6376 C.3     1  UNL1        0.4295
     29 O          63.3296   82.7685   13.4556 O.3     1  UNL1       -0.4315
     30 O          64.1802   82.1464   10.3717 O.3     1  UNL1       -0.4683
     31 C          63.3738   80.8816   10.3736 C.3     1  UNL1        0.2526
@<TRIPOS>BOND
     1    16    17    1
     2    17     8    1
     3     8     9   ar
     4     9    10   ar
     5    10     7    1
     6     1     7    1
     7     1     2    1
     8     2     3    1
     9     3     4    1
    10     4     5    2
    11     4     6    1
    12     6    20    1
    13    20    21    1
    14    21    22   ar
    15    22    23   ar
    16    23    30    1
    17    30    31    1
    18    23    24   ar
    19    24    25   ar
    20    25    26   ar
    21    25    27    1
    22    27    28    1
    23    28    29    1
    24    10    11   ar
    25    11    12   ar
    26    12    18    1
    27    18    19    1
    28    12    13   ar
    29    13    14    1
    30    13     8   ar
    31     6     1    1
    32    26    21   ar
    33    29    24    1
    34    14    15    1
