@<TRIPOS>MOLECULE
*****
 39 42 0 0 0
SMALL
GASTEIGER

@<TRIPOS>ATOM
      1 C          59.3332   94.3826   -4.1889 C.3     1  UNL1        0.0718
      2 C          59.8442   95.0002   -5.4567 C.3     1  UNL1        0.0754
      3 N          59.2410   94.6148   -6.7749 N.3     1  UNL1       -0.2971
      4 C          58.1268   93.6118   -6.8253 C.3     1  UNL1        0.0694
      5 C          57.6158   92.9941   -5.5574 C.3     1  UNL1        0.0302
      6 C          58.2190   93.3795   -4.2393 C.3     1  UNL1        0.0953
      7 H          59.9984   94.2426   -7.3477 H       1  UNL1        0.1233
      8 C          58.4650   93.4217   -2.7601 C.ar    1  UNL1       -0.0118
      9 C          57.7953   94.4667   -1.9180 C.ar    1  UNL1       -0.0014
     10 C          58.0413   94.5089   -0.4388 C.ar    1  UNL1        0.0317
     11 C          58.9570   93.5059    0.1981 C.ar    1  UNL1        0.1674
     12 F          59.2029   93.5480    1.6771 F       1  UNL1       -0.2018
     13 C          59.6267   92.4608   -0.6442 C.ar    1  UNL1        0.1671
     14 F          60.5423   91.4579   -0.0073 F       1  UNL1       -0.2018
     15 C          59.3807   92.4187   -2.1232 C.ar    1  UNL1        0.0282
     16 C          61.4587   94.9269   -0.9872 C.ar    1  UNL1        0.1823
     17 O          60.2705   95.7952   -0.6973 O.2     1  UNL1       -0.3532
     18 N          59.3296   95.6970   -1.8614 N.ar    1  UNL1       -0.0808
     19 C          59.9364   94.7680   -2.8708 C.ar    1  UNL1        0.1085
     20 C          61.2522   94.2920   -2.3304 C.ar    1  UNL1        0.0883
     21 BR         62.1959   93.3471   -3.0135 Br      1  UNL1       -0.0444
     22 C          63.8180   95.6589   -0.1822 C.ar    1  UNL1       -0.0174
     23 C          65.0044   95.4603    0.7138 C.ar    1  UNL1       -0.0041
     24 C          65.0180   94.3310    1.7010 C.ar    1  UNL1       -0.0003
     25 C          63.8452   93.4004    1.7921 C.ar    1  UNL1        0.0001
     26 C          62.6588   93.5990    0.8961 C.ar    1  UNL1        0.0028
     27 C          62.6452   94.7283   -0.0911 C.ar    1  UNL1        0.0338
     28 C          63.8044   96.7882   -1.1694 C.3     1  UNL1        0.0477
     29 C          64.7450   96.7745   -2.3378 C.3     1  UNL1        0.0941
     30 C          65.0667   94.2961   -5.4207 C.3     1  UNL1        0.0946
     31 C          64.8733   95.5549   -4.6283 C.2     1  UNL1        0.2230
     32 O          64.6149   96.8531   -5.3339 O.2     1  UNL1       -0.2751
     33 N          64.9384   95.5156   -3.1301 N.am    1  UNL1       -0.3040
     34 H          65.1079   94.6636   -2.6670 H       1  UNL1        0.1494
     35 C          57.1903   92.3911   -3.7759 C.2     1  UNL1        0.2227
     36 N          57.3582   90.9331   -4.0855 N.am    1  UNL1       -0.3286
     37 O          55.9936   92.8608   -3.0030 O.2     1  UNL1       -0.2750
     38 H          58.1436   90.6248   -4.5928 H       1  UNL1        0.1450
     39 H          56.6830   90.2843   -3.7814 H       1  UNL1        0.1450
@<TRIPOS>BOND
     1    30    31    1
     2    31    32    2
     3    31    33   am
     4    33    29    1
     5    29    28    1
     6    28    22    1
     7    22    23   ar
     8    23    24   ar
     9    24    25   ar
    10    25    26   ar
    11    26    27   ar
    12    27    16    1
    13    16    17   ar
    14    17    18   ar
    15    18    19   ar
    16     1    19    1
    17     1     2    1
    18     2     3    1
    19     3     4    1
    20     4     5    1
    21     5     6    1
    22     6    35    1
    23    35    36   am
    24    35    37    2
    25     6     8    1
    26     8     9   ar
    27     9    10   ar
    28    10    11   ar
    29    11    12    1
    30    11    13   ar
    31    13    14    1
    32    13    15   ar
    33    19    20   ar
    34    20    21    1
    35    27    22   ar
    36    20    16   ar
    37     6     1    1
    38    15     8   ar
    39    33    34    1
    40     3     7    1
    41    36    38    1
    42    36    39    1
@<TRIPOS>MOLECULE
*****
 39 42 0 0 0
SMALL
GASTEIGER

@<TRIPOS>ATOM
      1 C          58.5257   94.1756   -3.3492 C.3     1  UNL1        0.0718
      2 C          58.7271   94.1718   -4.8356 C.3     1  UNL1        0.0754
      3 N          57.5536   94.3542   -5.7518 N.3     1  UNL1       -0.2971
      4 C          56.1787   94.5404   -5.1817 C.3     1  UNL1        0.0694
      5 C          55.9773   94.5442   -3.6953 C.3     1  UNL1        0.0302
      6 C          57.1508   94.3618   -2.7790 C.3     1  UNL1        0.0953
      7 H          57.5153   93.5283   -6.3492 H       1  UNL1        0.1233
      8 C          57.9424   94.2279   -1.5119 C.ar    1  UNL1       -0.0118
      9 C          58.1939   92.8709   -0.9246 C.ar    1  UNL1       -0.0014
     10 C          58.9855   92.7370    0.3426 C.ar    1  UNL1        0.0317
     11 C          59.5255   93.9603    1.0223 C.ar    1  UNL1        0.1674
     12 F          60.3170   93.8264    2.2894 F       1  UNL1       -0.2018
     13 C          59.2740   95.3174    0.4349 C.ar    1  UNL1        0.1671
     14 F          59.8140   96.5406    1.1146 F       1  UNL1       -0.2018
     15 C          58.4825   95.4512   -0.8322 C.ar    1  UNL1        0.0282
     16 C          61.7209   94.4177   -1.1589 C.ar    1  UNL1        0.1823
     17 O          61.2893   93.0072   -0.8868 O.2     1  UNL1       -0.3532
     18 N          60.0398   92.7448   -1.6742 N.ar    1  UNL1       -0.0808
     19 C          59.6992   93.9932   -2.4329 C.ar    1  UNL1        0.1085
     20 C          60.7382   95.0271   -2.1144 C.ar    1  UNL1        0.0883
     21 BR         60.7861   96.4250   -2.6562 Br      1  UNL1       -0.0444
     22 C          64.1877   95.2031   -1.3790 C.ar    1  UNL1       -0.0174
     23 C          65.3908   95.8846   -0.7975 C.ar    1  UNL1       -0.0041
     24 C          65.3302   96.4624    0.5854 C.ar    1  UNL1       -0.0003
     25 C          64.0666   96.3586    1.3869 C.ar    1  UNL1        0.0001
     26 C          62.8635   95.6771    0.8055 C.ar    1  UNL1        0.0028
     27 C          62.9241   95.0993   -0.5774 C.ar    1  UNL1        0.0338
     28 C          64.2483   94.6253   -2.7619 C.3     1  UNL1        0.0477
     29 C          63.9357   93.1750   -2.9831 C.3     1  UNL1        0.0941
     30 C          65.1380   91.6690   -6.4525 C.3     1  UNL1        0.0946
     31 C          64.3569   92.4594   -5.4450 C.2     1  UNL1        0.2230
     32 O          63.2158   93.3244   -5.8917 O.2     1  UNL1       -0.2751
     33 N          64.7168   92.3846   -3.9907 N.am    1  UNL1       -0.3040
     34 H          65.4657   91.8169   -3.6975 H       1  UNL1        0.1494
     35 C          56.0509   94.5015   -1.7688 C.2     1  UNL1        0.2227
     36 N          55.8122   95.8216   -1.0976 N.am    1  UNL1       -0.3286
     37 O          55.1895   93.3212   -1.4298 O.2     1  UNL1       -0.2750
     38 H          56.3775   96.5963   -1.3202 H       1  UNL1        0.1450
     39 H          55.0903   95.9133   -0.4346 H       1  UNL1        0.1450
@<TRIPOS>BOND
     1    30    31    1
     2    31    32    2
     3    31    33   am
     4    33    29    1
     5    29    28    1
     6    28    22    1
     7    22    23   ar
     8    23    24   ar
     9    24    25   ar
    10    25    26   ar
    11    26    27   ar
    12    27    16    1
    13    16    17   ar
    14    17    18   ar
    15    18    19   ar
    16     1    19    1
    17     1     2    1
    18     2     3    1
    19     3     4    1
    20     4     5    1
    21     5     6    1
    22     6    35    1
    23    35    36   am
    24    35    37    2
    25     6     8    1
    26     8     9   ar
    27     9    10   ar
    28    10    11   ar
    29    11    12    1
    30    11    13   ar
    31    13    14    1
    32    13    15   ar
    33    19    20   ar
    34    20    21    1
    35    27    22   ar
    36    20    16   ar
    37     6     1    1
    38    15     8   ar
    39    33    34    1
    40     3     7    1
    41    36    38    1
    42    36    39    1
@<TRIPOS>MOLECULE
*****
 39 42 0 0 0
SMALL
GASTEIGER

@<TRIPOS>ATOM
      1 C          62.5961   93.6896   -0.0917 C.3     1  UNL1        0.0718
      2 C          62.7042   92.7500    1.0725 C.3     1  UNL1        0.0754
      3 N          63.9714   92.6904    1.8730 N.3     1  UNL1       -0.2971
      4 C          65.1303   93.5705    1.5092 C.3     1  UNL1        0.0694
      5 C          65.0222   94.5102    0.3450 C.3     1  UNL1        0.0302
      6 C          63.7550   94.5697   -0.4555 C.3     1  UNL1        0.0953
      7 H          64.3057   91.7280    1.8239 H       1  UNL1        0.1233
      8 C          62.7717   94.9850   -1.5094 C.ar    1  UNL1       -0.0118
      9 C          61.8577   96.1489   -1.2655 C.ar    1  UNL1       -0.0014
     10 C          60.8743   96.5642   -2.3194 C.ar    1  UNL1        0.0317
     11 C          60.8052   95.8153   -3.6173 C.ar    1  UNL1        0.1674
     12 F          59.8219   96.2306   -4.6712 F       1  UNL1       -0.2018
     13 C          61.7193   94.6513   -3.8612 C.ar    1  UNL1        0.1671
     14 F          61.6501   93.9026   -5.1591 F       1  UNL1       -0.2018
     15 C          62.7026   94.2362   -2.8073 C.ar    1  UNL1        0.0282
     16 C          59.0493   94.2288   -1.5733 C.ar    1  UNL1        0.1823
     17 O          59.7086   93.4528   -2.6748 O.2     1  UNL1       -0.3532
     18 N          61.1175   93.1564   -2.2538 N.ar    1  UNL1       -0.0808
     19 C          61.3289   93.7492   -0.8922 C.ar    1  UNL1        0.1085
     20 C          60.0507   94.4120   -0.4717 C.ar    1  UNL1        0.0883
     21 BR         59.8152   95.1315    0.8232 Br      1  UNL1       -0.0444
     22 C          56.4936   93.7622   -1.6027 C.ar    1  UNL1       -0.0174
     23 C          55.0810   94.2665   -1.6029 C.ar    1  UNL1       -0.0041
     24 C          54.8113   95.7418   -1.5739 C.ar    1  UNL1       -0.0003
     25 C          55.9542   96.7127   -1.5447 C.ar    1  UNL1        0.0001
     26 C          57.3669   96.2084   -1.5445 C.ar    1  UNL1        0.0028
     27 C          57.6366   94.7331   -1.5735 C.ar    1  UNL1        0.0338
     28 C          56.7633   92.2869   -1.6317 C.3     1  UNL1        0.0477
     29 C          56.0230   91.4080   -2.5957 C.3     1  UNL1        0.0941
     30 C          57.1947   91.6324   -6.3808 C.3     1  UNL1        0.0946
     31 C          56.5704   91.9964   -5.0664 C.2     1  UNL1        0.2230
     32 O          55.8692   93.3129   -4.9082 O.2     1  UNL1       -0.2751
     33 N          56.6474   91.0439   -3.9101 N.am    1  UNL1       -0.3040
     34 H          57.1076   90.1798   -4.0139 H       1  UNL1        0.1494
     35 C          64.5725   95.5940   -1.1852 C.2     1  UNL1        0.2227
     36 N          64.9886   96.8560   -0.4893 N.am    1  UNL1       -0.3286
     37 O          64.9738   95.3564   -2.6109 O.2     1  UNL1       -0.2750
     38 H          64.7252   97.0119    0.4464 H       1  UNL1        0.1450
     39 H          65.5251   97.5282   -0.9683 H       1  UNL1        0.1450
@<TRIPOS>BOND
     1    30    31    1
     2    31    32    2
     3    31    33   am
     4    33    29    1
     5    29    28    1
     6    28    22    1
     7    22    23   ar
     8    23    24   ar
     9    24    25   ar
    10    25    26   ar
    11    26    27   ar
    12    27    16    1
    13    16    17   ar
    14    17    18   ar
    15    18    19   ar
    16     1    19    1
    17     1     2    1
    18     2     3    1
    19     3     4    1
    20     4     5    1
    21     5     6    1
    22     6    35    1
    23    35    36   am
    24    35    37    2
    25     6     8    1
    26     8     9   ar
    27     9    10   ar
    28    10    11   ar
    29    11    12    1
    30    11    13   ar
    31    13    14    1
    32    13    15   ar
    33    19    20   ar
    34    20    21    1
    35    27    22   ar
    36    20    16   ar
    37     6     1    1
    38    15     8   ar
    39    33    34    1
    40     3     7    1
    41    36    38    1
    42    36    39    1
@<TRIPOS>MOLECULE
*****
 39 42 0 0 0
SMALL
GASTEIGER

@<TRIPOS>ATOM
      1 C          57.4464   95.5059   -2.2931 C.3     1  UNL1        0.0718
      2 C          56.7853   96.7992   -2.6678 C.3     1  UNL1        0.0754
      3 N          55.4713   96.7877   -3.3912 N.3     1  UNL1       -0.2971
      4 C          54.8185   95.4830   -3.7398 C.3     1  UNL1        0.0694
      5 C          55.4796   94.1897   -3.3652 C.3     1  UNL1        0.0302
      6 C          56.7936   94.2012   -2.6418 C.3     1  UNL1        0.0953
      7 H          55.6134   97.2894   -4.2678 H       1  UNL1        0.1233
      8 C          58.0301   93.6990   -1.9569 C.ar    1  UNL1       -0.0118
      9 C          59.2767   93.4448   -2.7512 C.ar    1  UNL1       -0.0014
     10 C          60.5132   92.9426   -2.0663 C.ar    1  UNL1        0.0317
     11 C          60.5028   92.6947   -0.5869 C.ar    1  UNL1        0.1674
     12 F          61.7392   92.1925    0.0979 F       1  UNL1       -0.2018
     13 C          59.2561   92.9489    0.2074 C.ar    1  UNL1        0.1671
     14 F          59.2458   92.7010    1.6867 F       1  UNL1       -0.2018
     15 C          58.0197   93.4511   -0.4775 C.ar    1  UNL1        0.0282
     16 C          61.1335   95.7060   -1.0969 C.ar    1  UNL1        0.1823
     17 O          60.4315   95.3640    0.1838 O.2     1  UNL1       -0.3532
     18 N          58.9648   95.2475   -0.1084 N.ar    1  UNL1       -0.0808
     19 C          58.7604   95.5174   -1.5698 C.ar    1  UNL1        0.1085
     20 C          60.1007   95.8008   -2.1807 C.ar    1  UNL1        0.0883
     21 BR         60.3624   96.1224   -3.6222 Br      1  UNL1       -0.0444
     22 C          63.5627   95.4020   -0.2270 C.ar    1  UNL1       -0.0174
     23 C          65.0384   95.6123   -0.3947 C.ar    1  UNL1       -0.0041
     24 C          65.5606   96.3369   -1.5998 C.ar    1  UNL1       -0.0003
     25 C          64.6071   96.8511   -2.6373 C.ar    1  UNL1        0.0001
     26 C          63.1315   96.6408   -2.4696 C.ar    1  UNL1        0.0028
     27 C          62.6093   95.9163   -1.2645 C.ar    1  UNL1        0.0338
     28 C          63.0405   94.6774    0.9781 C.3     1  UNL1        0.0477
     29 C          63.9719   94.3122    2.0956 C.3     1  UNL1        0.0941
     30 C          63.5208   90.5256    3.1950 C.3     1  UNL1        0.0946
     31 C          63.2126   91.9669    2.9162 C.2     1  UNL1        0.2230
     32 O          61.8371   92.5042    3.1791 O.2     1  UNL1       -0.2751
     33 N          64.2801   92.8709    2.3744 N.am    1  UNL1       -0.3040
     34 H          65.1829   92.5183    2.2019 H       1  UNL1        0.1494
     35 C          56.5702   92.7221   -2.7526 C.2     1  UNL1        0.2227
     36 N          57.2614   91.9377   -3.8282 N.am    1  UNL1       -0.3286
     37 O          55.6556   92.0273   -1.7878 O.2     1  UNL1       -0.2750
     38 H          57.8617   92.3937   -4.4614 H       1  UNL1        0.1450
     39 H          57.1148   90.9669   -3.9010 H       1  UNL1        0.1450
@<TRIPOS>BOND
     1    30    31    1
     2    31    32    2
     3    31    33   am
     4    33    29    1
     5    29    28    1
     6    28    22    1
     7    22    23   ar
     8    23    24   ar
     9    24    25   ar
    10    25    26   ar
    11    26    27   ar
    12    27    16    1
    13    16    17   ar
    14    17    18   ar
    15    18    19   ar
    16     1    19    1
    17     1     2    1
    18     2     3    1
    19     3     4    1
    20     4     5    1
    21     5     6    1
    22     6    35    1
    23    35    36   am
    24    35    37    2
    25     6     8    1
    26     8     9   ar
    27     9    10   ar
    28    10    11   ar
    29    11    12    1
    30    11    13   ar
    31    13    14    1
    32    13    15   ar
    33    19    20   ar
    34    20    21    1
    35    27    22   ar
    36    20    16   ar
    37     6     1    1
    38    15     8   ar
    39    33    34    1
    40     3     7    1
    41    36    38    1
    42    36    39    1
@<TRIPOS>MOLECULE
*****
 39 42 0 0 0
SMALL
GASTEIGER

@<TRIPOS>ATOM
      1 C          62.9419   95.6676   -0.8369 C.3     1  UNL1        0.0718
      2 C          63.4656   96.5908   -1.8968 C.3     1  UNL1        0.0754
      3 N          64.9387   96.8534   -2.0016 N.3     1  UNL1       -0.2971
      4 C          65.8881   96.1929   -1.0464 C.3     1  UNL1        0.0694
      5 C          65.3644   95.2697    0.0135 C.3     1  UNL1        0.0302
      6 C          63.8913   95.0070    0.1183 C.3     1  UNL1        0.0953
      7 H          65.0667   97.8598   -1.8952 H       1  UNL1        0.1233
      8 C          62.5910   94.4475    0.6146 C.ar    1  UNL1       -0.0118
      9 C          61.8043   95.1880    1.6550 C.ar    1  UNL1       -0.0014
     10 C          60.5041   94.6285    2.1514 C.ar    1  UNL1        0.0317
     11 C          59.9906   93.3284    1.6071 C.ar    1  UNL1        0.1674
     12 F          58.6904   92.7689    2.1034 F       1  UNL1       -0.2018
     13 C          60.7774   92.5879    0.5666 C.ar    1  UNL1        0.1671
     14 F          60.2639   91.2879    0.0224 F       1  UNL1       -0.2018
     15 C          62.0776   93.1474    0.0703 C.ar    1  UNL1        0.0282
     16 C          59.2370   94.5619   -1.1781 C.ar    1  UNL1        0.1823
     17 O          59.1668   95.4397    0.0362 O.2     1  UNL1       -0.3532
     18 N          60.5462   95.9608    0.3118 N.ar    1  UNL1       -0.0808
     19 C          61.4688   95.4050   -0.7321 C.ar    1  UNL1        0.1085
     20 C          60.6597   94.5404   -1.6529 C.ar    1  UNL1        0.0883
     21 BR         61.1816   93.7868   -2.8402 Br      1  UNL1       -0.0444
     22 C          57.3468   94.4502   -2.9571 C.ar    1  UNL1       -0.0174
     23 C          56.1963   93.7218   -3.5860 C.ar    1  UNL1       -0.0041
     24 C          55.7855   92.3765   -3.0651 C.ar    1  UNL1       -0.0003
     25 C          56.5251   91.7597   -1.9151 C.ar    1  UNL1        0.0001
     26 C          57.6756   92.4882   -1.2861 C.ar    1  UNL1        0.0028
     27 C          58.0864   93.8334   -1.8071 C.ar    1  UNL1        0.0338
     28 C          57.7577   95.7955   -3.4780 C.3     1  UNL1        0.0477
     29 C          58.2034   95.9440   -4.9026 C.3     1  UNL1        0.0941
     30 C          61.7084   95.1303   -6.5766 C.3     1  UNL1        0.0946
     31 C          60.2455   95.0709   -6.2508 C.2     1  UNL1        0.2230
     32 O          59.3616   94.0791   -6.9473 O.2     1  UNL1       -0.2751
     33 N          59.6663   96.0034   -5.2284 N.am    1  UNL1       -0.3040
     34 H          60.2465   96.6543   -4.7712 H       1  UNL1        0.1494
     35 C          64.3891   94.1522    1.2458 C.2     1  UNL1        0.2227
     36 N          64.6991   94.7716    2.5763 N.am    1  UNL1       -0.3286
     37 O          64.5770   92.6779    1.0429 O.2     1  UNL1       -0.2750
     38 H          64.5758   95.7392    2.7095 H       1  UNL1        0.1450
     39 H          65.0258   94.2105    3.3164 H       1  UNL1        0.1450
@<TRIPOS>BOND
     1    30    31    1
     2    31    32    2
     3    31    33   am
     4    33    29    1
     5    29    28    1
     6    28    22    1
     7    22    23   ar
     8    23    24   ar
     9    24    25   ar
    10    25    26   ar
    11    26    27   ar
    12    27    16    1
    13    16    17   ar
    14    17    18   ar
    15    18    19   ar
    16     1    19    1
    17     1     2    1
    18     2     3    1
    19     3     4    1
    20     4     5    1
    21     5     6    1
    22     6    35    1
    23    35    36   am
    24    35    37    2
    25     6     8    1
    26     8     9   ar
    27     9    10   ar
    28    10    11   ar
    29    11    12    1
    30    11    13   ar
    31    13    14    1
    32    13    15   ar
    33    19    20   ar
    34    20    21    1
    35    27    22   ar
    36    20    16   ar
    37     6     1    1
    38    15     8   ar
    39    33    34    1
    40     3     7    1
    41    36    38    1
    42    36    39    1
@<TRIPOS>MOLECULE
*****
 39 42 0 0 0
SMALL
GASTEIGER

@<TRIPOS>ATOM
      1 C          58.9374   94.4032   -3.2723 C.3     1  UNL1        0.0718
      2 C          59.0719   94.6885   -4.7388 C.3     1  UNL1        0.0754
      3 N          57.8454   94.8713   -5.5828 N.3     1  UNL1       -0.2971
      4 C          56.4845   94.7688   -4.9603 C.3     1  UNL1        0.0694
      5 C          56.3500   94.4835   -3.4939 C.3     1  UNL1        0.0302
      6 C          57.5765   94.3007   -2.6498 C.3     1  UNL1        0.0953
      7 H          57.8865   94.1660   -6.3186 H       1  UNL1        0.1233
      8 C          58.4338   94.0524   -1.4442 C.ar    1  UNL1       -0.0118
      9 C          58.8042   95.1904   -0.5401 C.ar    1  UNL1       -0.0014
     10 C          59.6615   94.9420    0.6655 C.ar    1  UNL1        0.0317
     11 C          60.1483   93.5556    0.9669 C.ar    1  UNL1        0.1674
     12 F          61.0056   93.3072    2.1724 F       1  UNL1       -0.2018
     13 C          59.7779   92.4175    0.0626 C.ar    1  UNL1        0.1671
     14 F          60.2647   91.0311    0.3640 F       1  UNL1       -0.2018
     15 C          58.9206   92.6659   -1.1429 C.ar    1  UNL1        0.0282
     16 C          62.1620   94.6809   -1.1298 C.ar    1  UNL1        0.1823
     17 O          61.9405   93.1973   -1.1292 O.2     1  UNL1       -0.3532
     18 N          60.7056   92.9127   -1.9317 N.ar    1  UNL1       -0.0808
     19 C          60.1638   94.2204   -2.4283 C.ar    1  UNL1        0.1085
     20 C          61.0640   95.3131   -1.9327 C.ar    1  UNL1        0.0883
     21 BR         60.8957   96.7806   -2.1941 Br      1  UNL1       -0.0444
     22 C          64.5347   95.7365   -1.2068 C.ar    1  UNL1       -0.0174
     23 C          65.6571   96.4607   -0.5244 C.ar    1  UNL1       -0.0041
     24 C          65.5292   96.8533    0.9177 C.ar    1  UNL1       -0.0003
     25 C          64.2790   96.5218    1.6772 C.ar    1  UNL1        0.0001
     26 C          63.1566   95.7977    0.9948 C.ar    1  UNL1        0.0028
     27 C          63.2845   95.4050   -0.4473 C.ar    1  UNL1        0.0338
     28 C          64.6625   95.3439   -2.6489 C.3     1  UNL1        0.0477
     29 C          64.5407   96.3838   -3.7230 C.3     1  UNL1        0.0941
     30 C          67.3033   96.6423   -6.5605 C.3     1  UNL1        0.0946
     31 C          66.0863   96.2000   -5.8032 C.2     1  UNL1        0.2230
     32 O          65.1981   95.1319   -6.3689 O.2     1  UNL1       -0.2751
     33 N          65.7577   96.8260   -4.4802 N.am    1  UNL1       -0.3040
     34 H          66.3407   97.5271   -4.1090 H       1  UNL1        0.1494
     35 C          56.5133   94.1120   -1.6087 C.2     1  UNL1        0.2227
     36 N          55.9086   95.3049   -0.9295 N.am    1  UNL1       -0.3286
     37 O          56.0549   92.7304   -1.2466 O.2     1  UNL1       -0.2750
     38 H          56.2094   96.2117   -1.1672 H       1  UNL1        0.1450
     39 H          55.2108   95.1811   -0.2462 H       1  UNL1        0.1450
@<TRIPOS>BOND
     1    30    31    1
     2    31    32    2
     3    31    33   am
     4    33    29    1
     5    29    28    1
     6    28    22    1
     7    22    23   ar
     8    23    24   ar
     9    24    25   ar
    10    25    26   ar
    11    26    27   ar
    12    27    16    1
    13    16    17   ar
    14    17    18   ar
    15    18    19   ar
    16     1    19    1
    17     1     2    1
    18     2     3    1
    19     3     4    1
    20     4     5    1
    21     5     6    1
    22     6    35    1
    23    35    36   am
    24    35    37    2
    25     6     8    1
    26     8     9   ar
    27     9    10   ar
    28    10    11   ar
    29    11    12    1
    30    11    13   ar
    31    13    14    1
    32    13    15   ar
    33    19    20   ar
    34    20    21    1
    35    27    22   ar
    36    20    16   ar
    37     6     1    1
    38    15     8   ar
    39    33    34    1
    40     3     7    1
    41    36    38    1
    42    36    39    1
@<TRIPOS>MOLECULE
*****
 39 42 0 0 0
SMALL
GASTEIGER

@<TRIPOS>ATOM
      1 C          62.7529   93.9089    0.4817 C.3     1  UNL1        0.0718
      2 C          64.1778   93.4831    0.6777 C.3     1  UNL1        0.0754
      3 N          64.5334   92.5441    1.7921 N.3     1  UNL1       -0.2971
      4 C          63.4641   92.0309    2.7104 C.3     1  UNL1        0.0694
      5 C          62.0392   92.4566    2.5144 C.3     1  UNL1        0.0302
      6 C          61.6836   93.3956    1.4000 C.3     1  UNL1        0.0953
      7 H          65.2169   93.0258    2.3762 H       1  UNL1        0.1233
      8 C          60.8570   94.2608    0.4954 C.ar    1  UNL1       -0.0118
      9 C          60.6702   95.7147    0.8129 C.ar    1  UNL1       -0.0014
     10 C          59.8436   96.5799   -0.0917 C.ar    1  UNL1        0.0317
     11 C          59.2037   95.9908   -1.3139 C.ar    1  UNL1        0.1674
     12 F          58.3771   96.8559   -2.2185 F       1  UNL1       -0.2018
     13 C          59.3905   94.5367   -1.6314 C.ar    1  UNL1        0.1671
     14 F          58.7506   93.9478   -2.8535 F       1  UNL1       -0.2018
     15 C          60.2171   93.6717   -0.7268 C.ar    1  UNL1        0.0282
     16 C          61.9088   95.7304   -2.8402 C.ar    1  UNL1        0.1823
     17 O          61.7913   96.8553   -1.8549 O.2     1  UNL1       -0.3532
     18 N          62.0932   96.3099   -0.4906 N.ar    1  UNL1       -0.0808
     19 C          62.3973   94.8478   -0.6327 C.ar    1  UNL1        0.1085
     20 C          62.2833   94.4898   -2.0848 C.ar    1  UNL1        0.0883
     21 BR         62.5048   93.1298   -2.6775 Br      1  UNL1       -0.0444
     22 C          62.8083   96.2736   -5.2163 C.ar    1  UNL1       -0.0174
     23 C          62.5896   96.3720   -6.6969 C.ar    1  UNL1       -0.0041
     24 C          61.2527   96.0257   -7.2823 C.ar    1  UNL1       -0.0003
     25 C          60.1344   95.5810   -6.3869 C.ar    1  UNL1        0.0001
     26 C          60.3531   95.4826   -4.9063 C.ar    1  UNL1        0.0028
     27 C          61.6901   95.8289   -4.3209 C.ar    1  UNL1        0.0338
     28 C          64.1453   96.6199   -4.6309 C.3     1  UNL1        0.0477
     29 C          65.3077   95.6897   -4.8136 C.3     1  UNL1        0.0941
     30 C          64.8482   91.9485   -6.0557 C.3     1  UNL1        0.0946
     31 C          65.0647   93.4327   -6.0773 C.2     1  UNL1        0.2230
     32 O          65.2548   94.1439   -7.3842 O.2     1  UNL1       -0.2751
     33 N          65.0911   94.2055   -4.7920 N.am    1  UNL1       -0.3040
     34 H          64.9664   93.7387   -3.9342 H       1  UNL1        0.1494
     35 C          60.3273   93.1828    2.0041 C.2     1  UNL1        0.2227
     36 N          59.3009   92.3677    1.2747 N.am    1  UNL1       -0.3286
     37 O          59.9972   93.7852    3.3376 O.2     1  UNL1       -0.2750
     38 H          59.5175   91.9723    0.3995 H       1  UNL1        0.1450
     39 H          58.4107   92.2280    1.6712 H       1  UNL1        0.1450
@<TRIPOS>BOND
     1    30    31    1
     2    31    32    2
     3    31    33   am
     4    33    29    1
     5    29    28    1
     6    28    22    1
     7    22    23   ar
     8    23    24   ar
     9    24    25   ar
    10    25    26   ar
    11    26    27   ar
    12    27    16    1
    13    16    17   ar
    14    17    18   ar
    15    18    19   ar
    16     1    19    1
    17     1     2    1
    18     2     3    1
    19     3     4    1
    20     4     5    1
    21     5     6    1
    22     6    35    1
    23    35    36   am
    24    35    37    2
    25     6     8    1
    26     8     9   ar
    27     9    10   ar
    28    10    11   ar
    29    11    12    1
    30    11    13   ar
    31    13    14    1
    32    13    15   ar
    33    19    20   ar
    34    20    21    1
    35    27    22   ar
    36    20    16   ar
    37     6     1    1
    38    15     8   ar
    39    33    34    1
    40     3     7    1
    41    36    38    1
    42    36    39    1
@<TRIPOS>MOLECULE
*****
 39 42 0 0 0
SMALL
GASTEIGER

@<TRIPOS>ATOM
      1 C          58.5145   94.1660   -3.7770 C.3     1  UNL1        0.0718
      2 C          58.6181   94.1034   -5.2721 C.3     1  UNL1        0.0754
      3 N          57.6698   93.2438   -6.0543 N.3     1  UNL1       -0.2971
      4 C          56.6179   92.4468   -5.3413 C.3     1  UNL1        0.0694
      5 C          56.5143   92.5094   -3.8462 C.3     1  UNL1        0.0302
      6 C          57.4626   93.3690   -3.0641 C.3     1  UNL1        0.0953
      7 H          58.2389   92.5786   -6.5778 H       1  UNL1        0.1233
      8 C          58.1256   94.0318   -1.8931 C.ar    1  UNL1       -0.0118
      9 C          57.6730   95.3897   -1.4446 C.ar    1  UNL1       -0.0014
     10 C          58.3360   96.0525   -0.2736 C.ar    1  UNL1        0.0317
     11 C          59.4517   95.3572    0.4489 C.ar    1  UNL1        0.1674
     12 F          60.1146   96.0200    1.6198 F       1  UNL1       -0.2018
     13 C          59.9043   93.9993    0.0004 C.ar    1  UNL1        0.1671
     14 F          61.0199   93.3041    0.7229 F       1  UNL1       -0.2018
     15 C          59.2413   93.3366   -1.1705 C.ar    1  UNL1        0.0282
     16 C          61.4657   95.8422   -1.8939 C.ar    1  UNL1        0.1823
     17 O          60.3784   96.8549   -1.6886 O.2     1  UNL1       -0.3532
     18 N          59.1405   96.3503   -2.3690 N.ar    1  UNL1       -0.0808
     19 C          59.4628   95.0256   -2.9949 C.ar    1  UNL1        0.1085
     20 C          60.8998   94.7117   -2.7012 C.ar    1  UNL1        0.0883
     21 BR         61.6409   93.4829   -3.1381 Br      1  UNL1       -0.0444
     22 C          63.9719   96.3977   -2.2944 C.ar    1  UNL1       -0.0174
     23 C          65.3782   96.4978   -1.7823 C.ar    1  UNL1       -0.0041
     24 C          65.6846   96.1427   -0.3575 C.ar    1  UNL1       -0.0003
     25 C          64.5848   95.6874    0.5551 C.ar    1  UNL1        0.0001
     26 C          63.1785   95.5872    0.0430 C.ar    1  UNL1        0.0028
     27 C          62.8721   95.9424   -1.3818 C.ar    1  UNL1        0.0338
     28 C          63.6655   96.7528   -3.7192 C.3     1  UNL1        0.0477
     29 C          64.6342   96.3936   -4.8066 C.3     1  UNL1        0.0941
     30 C          63.9468   93.0772   -6.8752 C.3     1  UNL1        0.0946
     31 C          64.3706   93.9935   -5.7658 C.2     1  UNL1        0.2230
     32 O          64.9548   93.4259   -4.5061 O.2     1  UNL1       -0.2751
     33 N          64.2103   95.4773   -5.9160 N.am    1  UNL1       -0.3040
     34 H          63.8269   95.8498   -6.7428 H       1  UNL1        0.1494
     35 C          56.6410   92.8022   -1.9444 C.2     1  UNL1        0.2227
     36 N          57.1356   91.6099   -1.1803 N.am    1  UNL1       -0.3286
     37 O          55.3247   93.4275   -1.5889 O.2     1  UNL1       -0.2750
     38 H          57.9995   91.1995   -1.4136 H       1  UNL1        0.1450
     39 H          56.5964   91.2379   -0.4454 H       1  UNL1        0.1450
@<TRIPOS>BOND
     1    30    31    1
     2    31    32    2
     3    31    33   am
     4    33    29    1
     5    29    28    1
     6    28    22    1
     7    22    23   ar
     8    23    24   ar
     9    24    25   ar
    10    25    26   ar
    11    26    27   ar
    12    27    16    1
    13    16    17   ar
    14    17    18   ar
    15    18    19   ar
    16     1    19    1
    17     1     2    1
    18     2     3    1
    19     3     4    1
    20     4     5    1
    21     5     6    1
    22     6    35    1
    23    35    36   am
    24    35    37    2
    25     6     8    1
    26     8     9   ar
    27     9    10   ar
    28    10    11   ar
    29    11    12    1
    30    11    13   ar
    31    13    14    1
    32    13    15   ar
    33    19    20   ar
    34    20    21    1
    35    27    22   ar
    36    20    16   ar
    37     6     1    1
    38    15     8   ar
    39    33    34    1
    40     3     7    1
    41    36    38    1
    42    36    39    1
@<TRIPOS>MOLECULE
*****
 39 42 0 0 0
SMALL
GASTEIGER

@<TRIPOS>ATOM
      1 C          63.0482   94.6682   -0.5319 C.3     1  UNL1        0.0718
      2 C          64.4586   95.0242   -0.8979 C.3     1  UNL1        0.0754
      3 N          65.5858   94.6681    0.0255 N.3     1  UNL1       -0.2971
      4 C          65.3025   93.9560    1.3150 C.3     1  UNL1        0.0694
      5 C          63.8921   93.6000    1.6810 C.3     1  UNL1        0.0302
      6 C          62.7649   93.9561    0.7576 C.3     1  UNL1        0.0953
      7 H          66.0547   95.5408    0.2680 H       1  UNL1        0.1233
      8 C          61.3713   94.0798    0.2166 C.ar    1  UNL1       -0.0118
      9 C          60.5664   95.3149    0.4931 C.ar    1  UNL1       -0.0014
     10 C          59.1727   95.4386   -0.0478 C.ar    1  UNL1        0.0317
     11 C          58.5841   94.3271   -0.8653 C.ar    1  UNL1        0.1674
     12 F          57.1905   94.4509   -1.4062 F       1  UNL1       -0.2018
     13 C          59.3891   93.0919   -1.1417 C.ar    1  UNL1        0.1671
     14 F          58.8005   91.9805   -1.9591 F       1  UNL1       -0.2018
     15 C          60.7826   92.9683   -0.6008 C.ar    1  UNL1        0.0282
     16 C          60.3718   94.9993   -3.3234 C.ar    1  UNL1        0.1823
     17 O          60.0013   96.1452   -2.4293 O.2     1  UNL1       -0.3532
     18 N          60.9588   96.1607   -1.2747 N.ar    1  UNL1       -0.0808
     19 C          61.9211   95.0243   -1.4553 C.ar    1  UNL1        0.1085
     20 C          61.5583   94.3065   -2.7215 C.ar    1  UNL1        0.0883
     21 BR         62.2590   93.1066   -3.2865 Br      1  UNL1       -0.0444
     22 C          60.2884   94.9665   -5.9200 C.ar    1  UNL1       -0.0174
     23 C          59.5943   94.5810   -7.1926 C.ar    1  UNL1       -0.0041
     24 C          58.2895   93.8428   -7.1414 C.ar    1  UNL1       -0.0003
     25 C          57.6789   93.4901   -5.8175 C.ar    1  UNL1        0.0001
     26 C          58.3730   93.8756   -4.5449 C.ar    1  UNL1        0.0028
     27 C          59.6777   94.6138   -4.5962 C.ar    1  UNL1        0.0338
     28 C          61.5931   95.7048   -5.9712 C.3     1  UNL1        0.0477
     29 C          62.7012   95.2091   -6.8524 C.3     1  UNL1        0.0941
     30 C          64.8968   91.9812   -6.1382 C.3     1  UNL1        0.0946
     31 C          64.4685   93.4170   -6.2078 C.2     1  UNL1        0.2230
     32 O          65.3790   94.4967   -5.7025 O.2     1  UNL1       -0.2751
     33 N          63.1295   93.7733   -6.7827 N.am    1  UNL1       -0.3040
     34 H          62.5319   93.0647   -7.1144 H       1  UNL1        0.1494
     35 C          61.9976   93.2869    1.8591 C.2     1  UNL1        0.2227
     36 N          62.3566   91.8939    2.2842 N.am    1  UNL1       -0.3286
     37 O          60.8714   94.0108    2.5357 O.2     1  UNL1       -0.2750
     38 H          63.0957   91.4188    1.8402 H       1  UNL1        0.1450
     39 H          61.8530   91.4547    3.0072 H       1  UNL1        0.1450
@<TRIPOS>BOND
     1    30    31    1
     2    31    32    2
     3    31    33   am
     4    33    29    1
     5    29    28    1
     6    28    22    1
     7    22    23   ar
     8    23    24   ar
     9    24    25   ar
    10    25    26   ar
    11    26    27   ar
    12    27    16    1
    13    16    17   ar
    14    17    18   ar
    15    18    19   ar
    16     1    19    1
    17     1     2    1
    18     2     3    1
    19     3     4    1
    20     4     5    1
    21     5     6    1
    22     6    35    1
    23    35    36   am
    24    35    37    2
    25     6     8    1
    26     8     9   ar
    27     9    10   ar
    28    10    11   ar
    29    11    12    1
    30    11    13   ar
    31    13    14    1
    32    13    15   ar
    33    19    20   ar
    34    20    21    1
    35    27    22   ar
    36    20    16   ar
    37     6     1    1
    38    15     8   ar
    39    33    34    1
    40     3     7    1
    41    36    38    1
    42    36    39    1
