@<TRIPOS>MOLECULE
*****
 46 50 0 0 0
SMALL
GASTEIGER

@<TRIPOS>ATOM
      1 O          60.4755   89.6717    5.8602 O.2     1  UNL1       -0.1499
      2 S          59.2250   90.4798    5.6782 S.O2    1  UNL1        0.0736
      3 O          57.9745   91.2879    5.4962 O.2     1  UNL1       -0.1499
      4 C          59.8978   91.2785    4.6013 C.ar    1  UNL1        0.1252
      5 C          61.3558   91.0731    4.3152 C.ar    1  UNL1        0.0202
      6 C          62.0286   91.8717    3.2384 C.ar    1  UNL1        0.0034
      7 C          61.2433   92.8758    2.4478 C.ar    1  UNL1        0.0239
      8 C          59.7853   93.0812    2.7339 C.ar    1  UNL1        0.0034
      9 C          59.1125   92.2826    3.8107 C.ar    1  UNL1        0.0202
     10 C          61.9161   93.6745    1.3709 C.ar    1  UNL1        0.1107
     11 N          62.4085   93.1442    0.0571 N.ar    1  UNL1       -0.2383
     12 C          63.0113   94.2857   -0.7069 C.ar    1  UNL1        0.0883
     13 C          62.8914   95.5215    0.1348 C.ar    1  UNL1        0.0560
     14 S          62.2146   95.1437    1.4190 S.2     1  UNL1       -0.0659
     15 C          63.6260   94.2055   -2.0728 C.ar    1  UNL1        0.0182
     16 C          63.5511   92.9279   -2.8551 C.ar    1  UNL1        0.0015
     17 C          64.1658   92.8476   -4.2210 C.ar    1  UNL1        0.0039
     18 C          64.8555   94.0451   -4.8046 C.ar    1  UNL1        0.0714
     19 C          64.9305   95.3226   -4.0223 C.ar    1  UNL1        0.0039
     20 C          64.3157   95.4028   -2.6564 C.ar    1  UNL1        0.0015
     21 C          65.4702   93.9649   -6.1705 C.3     1  UNL1        0.4186
     22 F          66.0850   93.8846   -7.5364 F       1  UNL1       -0.1659
     23 F          65.0114   92.5420   -6.2934 F       1  UNL1       -0.1659
     24 F          65.9290   95.3876   -6.0475 F       1  UNL1       -0.1659
     25 N          58.5522   89.6811    6.7550 N.pl3   1  UNL1       -0.2150
     26 H          57.5828   89.7708    6.9015 H       1  UNL1        0.1737
     27 C          59.3564   88.7459    7.6086 C.ar    1  UNL1        0.0648
     28 C          59.3041   87.2681    7.3567 C.ar    1  UNL1        0.0155
     29 C          60.1082   86.3329    8.2103 C.ar    1  UNL1       -0.0029
     30 C          60.9648   86.8755    9.3157 C.ar    1  UNL1       -0.0207
     31 C          61.0172   88.3532    9.5675 C.ar    1  UNL1       -0.0029
     32 C          60.2130   89.2884    8.7140 C.ar    1  UNL1        0.0155
     33 C          61.7690   85.9402   10.1693 C.3     1  UNL1        0.0434
     34 C          62.3551   86.4221   11.4632 C.3     1  UNL1        0.0734
     35 N          62.3929   85.5116   12.6547 N.3     1  UNL1       -0.2949
     36 H          61.7015   84.7803   12.4885 H       1  UNL1        0.1233
     37 C          63.6706   84.8220   13.0313 C.3     1  UNL1        0.1029
     38 C          64.3504   85.1572   14.3257 C.3     1  UNL1        0.1499
     39 O          65.4078   84.2462   14.8754 O.3     1  UNL1       -0.3786
     40 H          65.7421   84.6065   15.7117 H       1  UNL1        0.2108
     41 C          63.9729   86.4033   15.0704 C.ar    1  UNL1        0.0248
     42 C          64.3094   87.7491   14.4998 C.ar    1  UNL1        0.0012
     43 C          63.9319   88.9952   15.2444 C.ar    1  UNL1        0.0204
     44 C          63.2179   88.8956   16.5598 C.ar    1  UNL1        0.0989
     45 N          62.8814   87.5499   17.1305 N.ar    1  UNL1       -0.2426
     46 C          63.2589   86.3037   16.3858 C.ar    1  UNL1        0.0969
@<TRIPOS>BOND
     1     1     2    2
     2     2     3    2
     3     2    25    1
     4    25    27    1
     5    27    28   ar
     6    28    29   ar
     7    29    30   ar
     8    30    33    1
     9    33    34    1
    10    34    35    1
    11    35    37    1
    12    37    38    1
    13    38    39    1
    14    38    41    1
    15    41    42   ar
    16    42    43   ar
    17    43    44   ar
    18    44    45   ar
    19    45    46   ar
    20    30    31   ar
    21    31    32   ar
    22     2     4    1
    23     4     5   ar
    24     5     6   ar
    25     6     7   ar
    26     7    10    1
    27    10    11   ar
    28    11    12   ar
    29    12    15    1
    30    15    16   ar
    31    16    17   ar
    32    17    18   ar
    33    18    21    1
    34    21    22    1
    35    21    23    1
    36    21    24    1
    37    18    19   ar
    38    19    20   ar
    39    12    13   ar
    40    13    14   ar
    41     7     8   ar
    42     8     9   ar
    43    32    27   ar
    44     9     4   ar
    45    46    41   ar
    46    14    10   ar
    47    20    15   ar
    48    25    26    1
    49    35    36    1
    50    39    40    1
@<TRIPOS>MOLECULE
*****
 46 50 0 0 0
SMALL
GASTEIGER

@<TRIPOS>ATOM
      1 O          60.4637   89.8562    5.9745 O.2     1  UNL1       -0.1499
      2 S          59.1631   90.5177    5.6269 S.O2    1  UNL1        0.0736
      3 O          57.8625   91.1792    5.2793 O.2     1  UNL1       -0.1499
      4 C          59.8558   91.3234    4.5681 C.ar    1  UNL1        0.1252
      5 C          59.0732   92.2888    3.7282 C.ar    1  UNL1        0.0202
      6 C          59.7658   93.0945    2.6694 C.ar    1  UNL1        0.0034
      7 C          61.2411   92.9348    2.4505 C.ar    1  UNL1        0.0239
      8 C          62.0237   91.9694    3.2904 C.ar    1  UNL1        0.0034
      9 C          61.3311   91.1637    4.3492 C.ar    1  UNL1        0.0202
     10 C          61.9338   93.7406    1.3917 C.ar    1  UNL1        0.1107
     11 N          62.3868   93.2349    0.0541 N.ar    1  UNL1       -0.2383
     12 C          63.0280   94.3752   -0.6797 C.ar    1  UNL1        0.0883
     13 C          62.9714   95.5857    0.2044 C.ar    1  UNL1        0.0560
     14 S          62.2951   95.1934    1.4846 S.2     1  UNL1       -0.0659
     15 C          63.6217   94.3155   -2.0559 C.ar    1  UNL1        0.0182
     16 C          64.4067   95.4790   -2.5850 C.ar    1  UNL1        0.0015
     17 C          65.0005   95.4194   -3.9612 C.ar    1  UNL1        0.0039
     18 C          64.8091   94.1962   -4.8083 C.ar    1  UNL1        0.0714
     19 C          64.0241   93.0328   -4.2791 C.ar    1  UNL1        0.0039
     20 C          63.4304   93.0925   -2.9029 C.ar    1  UNL1        0.0015
     21 C          65.4028   94.1366   -6.1845 C.3     1  UNL1        0.4186
     22 F          65.9965   94.0769   -7.5607 F       1  UNL1       -0.1659
     23 F          65.0347   95.5738   -6.4056 F       1  UNL1       -0.1659
     24 F          65.7709   92.6995   -5.9634 F       1  UNL1       -0.1659
     25 N          58.4704   89.7121    6.6857 N.pl3   1  UNL1       -0.2150
     26 H          57.5005   89.8103    6.8233 H       1  UNL1        0.1737
     27 C          59.2554   88.7566    7.5348 C.ar    1  UNL1        0.0648
     28 C          60.0617   89.2692    8.6911 C.ar    1  UNL1        0.0155
     29 C          60.8466   88.3138    9.5402 C.ar    1  UNL1       -0.0029
     30 C          60.8253   86.8457    9.2329 C.ar    1  UNL1       -0.0207
     31 C          60.0190   86.3331    8.0766 C.ar    1  UNL1       -0.0029
     32 C          59.2340   87.2886    7.2276 C.ar    1  UNL1        0.0155
     33 C          61.6103   85.8903   10.0821 C.3     1  UNL1        0.0434
     34 C          62.3694   86.3951   11.2732 C.3     1  UNL1        0.0734
     35 N          62.3746   85.6059   12.5489 N.3     1  UNL1       -0.2949
     36 H          62.0952   84.6550   12.3080 H       1  UNL1        0.1233
     37 C          63.6330   85.4958   13.3576 C.3     1  UNL1        0.1029
     38 C          63.8449   84.3151   14.2581 C.3     1  UNL1        0.1499
     39 O          64.6072   84.4767   15.5399 O.3     1  UNL1       -0.3786
     40 H          64.6523   83.6234   15.9990 H       1  UNL1        0.2108
     41 C          63.2945   82.9728   13.8770 C.ar    1  UNL1        0.0248
     42 C          62.0875   82.4293   14.5825 C.ar    1  UNL1        0.0012
     43 C          61.5370   81.0870   14.2014 C.ar    1  UNL1        0.0204
     44 C          62.1936   80.2883   13.1147 C.ar    1  UNL1        0.0989
     45 N          63.4006   80.8318   12.4092 N.ar    1  UNL1       -0.2426
     46 C          63.9510   82.1740   12.7903 C.ar    1  UNL1        0.0969
@<TRIPOS>BOND
     1     1     2    2
     2     2     3    2
     3     2    25    1
     4    25    27    1
     5    27    28   ar
     6    28    29   ar
     7    29    30   ar
     8    30    33    1
     9    33    34    1
    10    34    35    1
    11    35    37    1
    12    37    38    1
    13    38    39    1
    14    38    41    1
    15    41    42   ar
    16    42    43   ar
    17    43    44   ar
    18    44    45   ar
    19    45    46   ar
    20    30    31   ar
    21    31    32   ar
    22     2     4    1
    23     4     5   ar
    24     5     6   ar
    25     6     7   ar
    26     7    10    1
    27    10    11   ar
    28    11    12   ar
    29    12    15    1
    30    15    16   ar
    31    16    17   ar
    32    17    18   ar
    33    18    21    1
    34    21    22    1
    35    21    23    1
    36    21    24    1
    37    18    19   ar
    38    19    20   ar
    39    12    13   ar
    40    13    14   ar
    41     7     8   ar
    42     8     9   ar
    43    32    27   ar
    44     9     4   ar
    45    46    41   ar
    46    14    10   ar
    47    20    15   ar
    48    25    26    1
    49    35    36    1
    50    39    40    1
@<TRIPOS>MOLECULE
*****
 46 50 0 0 0
SMALL
GASTEIGER

@<TRIPOS>ATOM
      1 O          60.5135   89.7961    5.8489 O.2     1  UNL1       -0.1499
      2 S          59.2155   90.4860    5.5504 S.O2    1  UNL1        0.0736
      3 O          57.9175   91.1760    5.2519 O.2     1  UNL1       -0.1499
      4 C          59.8929   91.3014    4.4891 C.ar    1  UNL1        0.1252
      5 C          59.1012   92.2854    3.6798 C.ar    1  UNL1        0.0202
      6 C          59.7785   93.1007    2.6185 C.ar    1  UNL1        0.0034
      7 C          61.2475   92.9321    2.3665 C.ar    1  UNL1        0.0239
      8 C          62.0392   91.9480    3.1757 C.ar    1  UNL1        0.0034
      9 C          61.3619   91.1327    4.2371 C.ar    1  UNL1        0.0202
     10 C          61.9249   93.7474    1.3051 C.ar    1  UNL1        0.1107
     11 N          62.4325   93.2355   -0.0103 N.ar    1  UNL1       -0.2383
     12 C          63.0349   94.3895   -0.7555 C.ar    1  UNL1        0.0883
     13 C          62.8997   95.6147    0.0994 C.ar    1  UNL1        0.0560
     14 S          62.2136   95.2178    1.3729 S.2     1  UNL1       -0.0659
     15 C          63.6624   94.3291   -2.1166 C.ar    1  UNL1        0.0182
     16 C          64.2954   95.5547   -2.7057 C.ar    1  UNL1        0.0015
     17 C          64.9230   95.4943   -4.0668 C.ar    1  UNL1        0.0039
     18 C          64.9174   94.2081   -4.8387 C.ar    1  UNL1        0.0714
     19 C          64.2844   92.9825   -4.2497 C.ar    1  UNL1        0.0039
     20 C          63.6569   93.0430   -2.8886 C.ar    1  UNL1        0.0015
     21 C          65.5450   94.1476   -6.1999 C.3     1  UNL1        0.4186
     22 F          66.1725   94.0872   -7.5610 F       1  UNL1       -0.1659
     23 F          65.5580   95.6464   -6.2604 F       1  UNL1       -0.1659
     24 F          65.5319   92.6490   -6.1393 F       1  UNL1       -0.1659
     25 N          58.5381   89.6707    6.6117 N.pl3   1  UNL1       -0.2150
     26 H          57.5569   89.6843    6.6916 H       1  UNL1        0.1737
     27 C          59.3556   88.8348    7.5514 C.ar    1  UNL1        0.0648
     28 C          60.2191   89.4951    8.5849 C.ar    1  UNL1        0.0155
     29 C          61.0366   88.6592    9.5245 C.ar    1  UNL1       -0.0029
     30 C          60.9905   87.1628    9.4305 C.ar    1  UNL1       -0.0207
     31 C          60.1270   86.5024    8.3970 C.ar    1  UNL1       -0.0029
     32 C          59.3095   87.3384    7.4575 C.ar    1  UNL1        0.0155
     33 C          61.8080   86.3268   10.3702 C.3     1  UNL1        0.0434
     34 C          61.9800   86.7539   11.7978 C.3     1  UNL1        0.0734
     35 N          63.0952   87.6842   12.1732 N.3     1  UNL1       -0.2949
     36 H          63.8255   87.5670   11.4708 H       1  UNL1        0.1233
     37 C          62.8366   89.1573   12.2873 C.3     1  UNL1        0.1029
     38 C          63.2744   89.9028   13.5131 C.3     1  UNL1        0.1499
     39 O          62.5098   89.7532   14.7950 O.3     1  UNL1       -0.3786
     40 H          62.9224   90.2984   15.4830 H       1  UNL1        0.2108
     41 C          64.4768   90.7979   13.4571 C.ar    1  UNL1        0.0248
     42 C          65.5222   90.7176   14.5298 C.ar    1  UNL1        0.0012
     43 C          66.7245   91.6127   14.4739 C.ar    1  UNL1        0.0204
     44 C          66.8814   92.5881   13.3453 C.ar    1  UNL1        0.0989
     45 N          65.8360   92.6685   12.2726 N.ar    1  UNL1       -0.2426
     46 C          64.6337   91.7734   12.3285 C.ar    1  UNL1        0.0969
@<TRIPOS>BOND
     1     1     2    2
     2     2     3    2
     3     2    25    1
     4    25    27    1
     5    27    28   ar
     6    28    29   ar
     7    29    30   ar
     8    30    33    1
     9    33    34    1
    10    34    35    1
    11    35    37    1
    12    37    38    1
    13    38    39    1
    14    38    41    1
    15    41    42   ar
    16    42    43   ar
    17    43    44   ar
    18    44    45   ar
    19    45    46   ar
    20    30    31   ar
    21    31    32   ar
    22     2     4    1
    23     4     5   ar
    24     5     6   ar
    25     6     7   ar
    26     7    10    1
    27    10    11   ar
    28    11    12   ar
    29    12    15    1
    30    15    16   ar
    31    16    17   ar
    32    17    18   ar
    33    18    21    1
    34    21    22    1
    35    21    23    1
    36    21    24    1
    37    18    19   ar
    38    19    20   ar
    39    12    13   ar
    40    13    14   ar
    41     7     8   ar
    42     8     9   ar
    43    32    27   ar
    44     9     4   ar
    45    46    41   ar
    46    14    10   ar
    47    20    15   ar
    48    25    26    1
    49    35    36    1
    50    39    40    1
@<TRIPOS>MOLECULE
*****
 46 50 0 0 0
SMALL
GASTEIGER

@<TRIPOS>ATOM
      1 O          60.4886   89.9163    8.2037 O.2     1  UNL1       -0.1499
      2 S          59.3851   89.1485    7.5385 S.O2    1  UNL1        0.0736
      3 O          58.2816   88.3806    6.8732 O.2     1  UNL1       -0.1499
      4 C          59.4666   90.0606    6.3504 C.ar    1  UNL1        0.1252
      5 C          60.7911   90.3260    5.6982 C.ar    1  UNL1        0.0202
      6 C          60.8727   91.2381    4.5102 C.ar    1  UNL1        0.0034
      7 C          59.6298   91.8846    3.9743 C.ar    1  UNL1        0.0239
      8 C          58.3054   91.6192    4.6265 C.ar    1  UNL1        0.0034
      9 C          58.2238   90.7071    5.8145 C.ar    1  UNL1        0.0202
     10 C          59.7114   92.7968    2.7862 C.ar    1  UNL1        0.1107
     11 N          58.9731   92.6265    1.4917 N.ar    1  UNL1       -0.2383
     12 C          59.3510   93.7638    0.5895 C.ar    1  UNL1        0.0883
     13 C          60.3229   94.6369    1.3265 C.ar    1  UNL1        0.0560
     14 S          60.5456   94.0392    2.6841 S.2     1  UNL1       -0.0659
     15 C          58.8457   93.9885   -0.8049 C.ar    1  UNL1        0.0182
     16 C          59.7322   93.6987   -1.9795 C.ar    1  UNL1        0.0015
     17 C          59.2270   93.9234   -3.3739 C.ar    1  UNL1        0.0039
     18 C          57.8352   94.4379   -3.5935 C.ar    1  UNL1        0.0714
     19 C          56.9487   94.7277   -2.4188 C.ar    1  UNL1        0.0039
     20 C          57.4539   94.5030   -1.0244 C.ar    1  UNL1        0.0015
     21 C          57.3299   94.6626   -4.9879 C.3     1  UNL1        0.4186
     22 F          56.8246   94.8874   -6.3822 F       1  UNL1       -0.1659
     23 F          58.6636   95.2259   -5.3804 F       1  UNL1       -0.1659
     24 F          55.9963   94.0994   -4.5954 F       1  UNL1       -0.1659
     25 N          59.3035   88.2364    8.7265 N.pl3   1  UNL1       -0.2150
     26 H          58.5356   88.2945    9.3399 H       1  UNL1        0.1737
     27 C          60.3919   87.2357    8.9799 C.ar    1  UNL1        0.0648
     28 C          60.9479   87.0665   10.3627 C.ar    1  UNL1        0.0155
     29 C          62.0362   86.0659   10.6161 C.ar    1  UNL1       -0.0029
     30 C          62.5685   85.2344    9.4868 C.ar    1  UNL1       -0.0207
     31 C          62.0124   85.4036    8.1040 C.ar    1  UNL1       -0.0029
     32 C          60.9241   86.4043    7.8506 C.ar    1  UNL1        0.0155
     33 C          63.6568   84.2338    9.7403 C.3     1  UNL1        0.0434
     34 C          63.6606   83.4352   11.0100 C.3     1  UNL1        0.0734
     35 N          64.5759   83.8190   12.1347 N.3     1  UNL1       -0.2949
     36 H          65.1235   84.6159   11.8099 H       1  UNL1        0.1233
     37 C          64.0060   84.2002   13.4688 C.3     1  UNL1        0.1029
     38 C          64.8417   84.9676   14.4498 C.3     1  UNL1        0.1499
     39 O          66.2877   84.6166   14.6392 O.3     1  UNL1       -0.3786
     40 H          66.6788   85.2048   15.3041 H       1  UNL1        0.2108
     41 C          64.2315   86.0862   15.2414 C.ar    1  UNL1        0.0248
     42 C          63.5200   85.7926   16.5288 C.ar    1  UNL1        0.0012
     43 C          62.9098   86.9111   17.3204 C.ar    1  UNL1        0.0204
     44 C          63.0112   88.3231   16.8246 C.ar    1  UNL1        0.0989
     45 N          63.7228   88.6166   15.5372 N.ar    1  UNL1       -0.2426
     46 C          64.3330   87.4982   14.7456 C.ar    1  UNL1        0.0969
@<TRIPOS>BOND
     1     1     2    2
     2     2     3    2
     3     2    25    1
     4    25    27    1
     5    27    28   ar
     6    28    29   ar
     7    29    30   ar
     8    30    33    1
     9    33    34    1
    10    34    35    1
    11    35    37    1
    12    37    38    1
    13    38    39    1
    14    38    41    1
    15    41    42   ar
    16    42    43   ar
    17    43    44   ar
    18    44    45   ar
    19    45    46   ar
    20    30    31   ar
    21    31    32   ar
    22     2     4    1
    23     4     5   ar
    24     5     6   ar
    25     6     7   ar
    26     7    10    1
    27    10    11   ar
    28    11    12   ar
    29    12    15    1
    30    15    16   ar
    31    16    17   ar
    32    17    18   ar
    33    18    21    1
    34    21    22    1
    35    21    23    1
    36    21    24    1
    37    18    19   ar
    38    19    20   ar
    39    12    13   ar
    40    13    14   ar
    41     7     8   ar
    42     8     9   ar
    43    32    27   ar
    44     9     4   ar
    45    46    41   ar
    46    14    10   ar
    47    20    15   ar
    48    25    26    1
    49    35    36    1
    50    39    40    1
@<TRIPOS>MOLECULE
*****
 46 50 0 0 0
SMALL
GASTEIGER

@<TRIPOS>ATOM
      1 O          61.5847   85.3126   15.9635 O.2     1  UNL1       -0.1499
      2 S          62.9730   84.7879   15.7462 S.O2    1  UNL1        0.0736
      3 O          64.3612   84.2631   15.5290 O.2     1  UNL1       -0.1499
      4 C          63.4462   86.1739   15.4221 C.ar    1  UNL1        0.1252
      5 C          63.1881   87.2980   16.3811 C.ar    1  UNL1        0.0202
      6 C          63.6613   88.6840   16.0570 C.ar    1  UNL1        0.0034
      7 C          64.3926   88.9459   14.7738 C.ar    1  UNL1        0.0239
      8 C          64.6507   87.8218   13.8148 C.ar    1  UNL1        0.0034
      9 C          64.1775   86.4358   14.1389 C.ar    1  UNL1        0.0202
     10 C          64.8658   90.3319   14.4497 C.ar    1  UNL1        0.1107
     11 N          65.1916   90.8551   13.0821 N.ar    1  UNL1       -0.2383
     12 C          65.6235   92.2846   13.2235 C.ar    1  UNL1        0.0883
     13 C          65.5646   92.6450   14.6784 C.ar    1  UNL1        0.0560
     14 S          65.0963   91.4381   15.4362 S.2     1  UNL1       -0.0659
     15 C          66.0409   93.1941   12.1061 C.ar    1  UNL1        0.0182
     16 C          65.9902   94.6817   12.2912 C.ar    1  UNL1        0.0015
     17 C          66.4076   95.5913   11.1739 C.ar    1  UNL1        0.0039
     18 C          66.8758   95.0131    9.8713 C.ar    1  UNL1        0.0714
     19 C          66.9265   93.5255    9.6862 C.ar    1  UNL1        0.0039
     20 C          66.5091   92.6159   10.8036 C.ar    1  UNL1        0.0015
     21 C          67.2932   95.9226    8.7539 C.3     1  UNL1        0.4186
     22 F          67.7107   96.8321    7.6365 F       1  UNL1       -0.1659
     23 F          66.6652   94.9904    7.7606 F       1  UNL1       -0.1659
     24 F          67.9212   96.8546    9.7472 F       1  UNL1       -0.1659
     25 N          62.4998   83.4019   16.0704 N.pl3   1  UNL1       -0.2150
     26 H          62.1666   83.1941   16.9732 H       1  UNL1        0.1737
     27 C          62.5342   82.3325   15.0190 C.ar    1  UNL1        0.0648
     28 C          61.2543   81.7320   14.5179 C.ar    1  UNL1        0.0155
     29 C          61.2888   80.6627   13.4665 C.ar    1  UNL1       -0.0029
     30 C          62.6032   80.1939   12.9163 C.ar    1  UNL1       -0.0207
     31 C          63.8831   80.7945   13.4174 C.ar    1  UNL1       -0.0029
     32 C          63.8486   81.8638   14.4687 C.ar    1  UNL1        0.0155
     33 C          62.6376   79.1246   11.8649 C.3     1  UNL1        0.0434
     34 C          62.8516   79.4933   10.4268 C.3     1  UNL1        0.0734
     35 N          63.5274   80.7859   10.0765 N.3     1  UNL1       -0.2949
     36 H          63.7654   80.7347    9.0860 H       1  UNL1        0.1233
     37 C          62.8104   82.0871   10.2829 C.3     1  UNL1        0.1029
     38 C          63.5846   83.3221   10.6370 C.3     1  UNL1        0.1499
     39 O          64.9839   83.2046   11.1643 O.3     1  UNL1       -0.3786
     40 H          65.3380   84.0901   11.3416 H       1  UNL1        0.2108
     41 C          62.9594   84.6746   10.4637 C.ar    1  UNL1        0.0248
     42 C          62.9092   85.3092    9.1055 C.ar    1  UNL1        0.0012
     43 C          62.2841   86.6616    8.9322 C.ar    1  UNL1        0.0204
     44 C          61.7093   87.3795   10.1171 C.ar    1  UNL1        0.0989
     45 N          61.7595   86.7450   11.4753 N.ar    1  UNL1       -0.2426
     46 C          62.3846   85.3925   11.6486 C.ar    1  UNL1        0.0969
@<TRIPOS>BOND
     1     1     2    2
     2     2     3    2
     3     2    25    1
     4    25    27    1
     5    27    28   ar
     6    28    29   ar
     7    29    30   ar
     8    30    33    1
     9    33    34    1
    10    34    35    1
    11    35    37    1
    12    37    38    1
    13    38    39    1
    14    38    41    1
    15    41    42   ar
    16    42    43   ar
    17    43    44   ar
    18    44    45   ar
    19    45    46   ar
    20    30    31   ar
    21    31    32   ar
    22     2     4    1
    23     4     5   ar
    24     5     6   ar
    25     6     7   ar
    26     7    10    1
    27    10    11   ar
    28    11    12   ar
    29    12    15    1
    30    15    16   ar
    31    16    17   ar
    32    17    18   ar
    33    18    21    1
    34    21    22    1
    35    21    23    1
    36    21    24    1
    37    18    19   ar
    38    19    20   ar
    39    12    13   ar
    40    13    14   ar
    41     7     8   ar
    42     8     9   ar
    43    32    27   ar
    44     9     4   ar
    45    46    41   ar
    46    14    10   ar
    47    20    15   ar
    48    25    26    1
    49    35    36    1
    50    39    40    1
@<TRIPOS>MOLECULE
*****
 46 50 0 0 0
SMALL
GASTEIGER

@<TRIPOS>ATOM
      1 O          60.4700   89.7308    8.3916 O.2     1  UNL1       -0.1499
      2 S          59.4042   88.9374    7.6956 S.O2    1  UNL1        0.0736
      3 O          58.3384   88.1440    6.9995 O.2     1  UNL1       -0.1499
      4 C          59.4751   89.8705    6.5233 C.ar    1  UNL1        0.1252
      5 C          58.2231   90.5019    5.9904 C.ar    1  UNL1        0.0202
      6 C          58.2939   91.4350    4.8182 C.ar    1  UNL1        0.0034
      7 C          59.6167   91.7367    4.1787 C.ar    1  UNL1        0.0239
      8 C          60.8688   91.1054    4.7115 C.ar    1  UNL1        0.0034
      9 C          60.7979   90.1723    5.8838 C.ar    1  UNL1        0.0202
     10 C          59.6876   92.6699    3.0064 C.ar    1  UNL1        0.1107
     11 N          59.0059   92.4778    1.6841 N.ar    1  UNL1       -0.2383
     12 C          59.3497   93.6481    0.8111 C.ar    1  UNL1        0.0883
     13 C          60.2439   94.5635    1.5938 C.ar    1  UNL1        0.0560
     14 S          60.4527   93.9589    2.9505 S.2     1  UNL1       -0.0659
     15 C          58.8814   93.8650   -0.5974 C.ar    1  UNL1        0.0182
     16 C          59.8782   93.9414   -1.7156 C.ar    1  UNL1        0.0015
     17 C          59.4100   94.1583   -3.1241 C.ar    1  UNL1        0.0039
     18 C          57.9450   94.2988   -3.4142 C.ar    1  UNL1        0.0714
     19 C          56.9483   94.2224   -2.2960 C.ar    1  UNL1        0.0039
     20 C          57.4165   94.0055   -0.8875 C.ar    1  UNL1        0.0015
     21 C          57.4768   94.5157   -4.8227 C.3     1  UNL1        0.4186
     22 F          57.0085   94.7326   -6.2311 F       1  UNL1       -0.1659
     23 F          58.8697   94.2724   -5.3232 F       1  UNL1       -0.1659
     24 F          56.0839   94.7590   -4.3222 F       1  UNL1       -0.1659
     25 N          59.3333   88.0043    8.8678 N.pl3   1  UNL1       -0.2150
     26 H          58.5385   88.0033    9.4488 H       1  UNL1        0.1737
     27 C          60.4733   87.0726    9.1549 C.ar    1  UNL1        0.0648
     28 C          61.2027   86.4093    8.0245 C.ar    1  UNL1        0.0155
     29 C          62.3427   85.4777    8.3117 C.ar    1  UNL1       -0.0029
     30 C          62.7534   85.2095    9.7292 C.ar    1  UNL1       -0.0207
     31 C          62.0240   85.8729   10.8596 C.ar    1  UNL1       -0.0029
     32 C          60.8840   86.8045   10.5725 C.ar    1  UNL1        0.0155
     33 C          63.8935   84.2779   10.0163 C.3     1  UNL1        0.0434
     34 C          63.6542   82.7987   10.0850 C.3     1  UNL1        0.0734
     35 N          63.5840   82.1113   11.4165 N.3     1  UNL1       -0.2949
     36 H          64.4368   82.3562   11.9196 H       1  UNL1        0.1233
     37 C          62.4388   82.3891   12.3445 C.3     1  UNL1        0.1029
     38 C          62.6657   82.4218   13.8268 C.3     1  UNL1        0.1499
     39 O          62.4526   81.1832   14.6457 O.3     1  UNL1       -0.3786
     40 H          62.6414   81.3752   15.5776 H       1  UNL1        0.2108
     41 C          63.1058   83.6931   14.4904 C.ar    1  UNL1        0.0248
     42 C          64.3645   84.3757   14.0434 C.ar    1  UNL1        0.0012
     43 C          64.8045   85.6469   14.7069 C.ar    1  UNL1        0.0204
     44 C          63.9859   86.2355   15.8175 C.ar    1  UNL1        0.0989
     45 N          62.7273   85.5529   16.2645 N.ar    1  UNL1       -0.2426
     46 C          62.2872   84.2817   15.6010 C.ar    1  UNL1        0.0969
@<TRIPOS>BOND
     1     1     2    2
     2     2     3    2
     3     2    25    1
     4    25    27    1
     5    27    28   ar
     6    28    29   ar
     7    29    30   ar
     8    30    33    1
     9    33    34    1
    10    34    35    1
    11    35    37    1
    12    37    38    1
    13    38    39    1
    14    38    41    1
    15    41    42   ar
    16    42    43   ar
    17    43    44   ar
    18    44    45   ar
    19    45    46   ar
    20    30    31   ar
    21    31    32   ar
    22     2     4    1
    23     4     5   ar
    24     5     6   ar
    25     6     7   ar
    26     7    10    1
    27    10    11   ar
    28    11    12   ar
    29    12    15    1
    30    15    16   ar
    31    16    17   ar
    32    17    18   ar
    33    18    21    1
    34    21    22    1
    35    21    23    1
    36    21    24    1
    37    18    19   ar
    38    19    20   ar
    39    12    13   ar
    40    13    14   ar
    41     7     8   ar
    42     8     9   ar
    43    32    27   ar
    44     9     4   ar
    45    46    41   ar
    46    14    10   ar
    47    20    15   ar
    48    25    26    1
    49    35    36    1
    50    39    40    1
@<TRIPOS>MOLECULE
*****
 46 50 0 0 0
SMALL
GASTEIGER

@<TRIPOS>ATOM
      1 O          62.8788   93.5133   -0.6708 O.2     1  UNL1       -0.1499
      2 S          61.9902   94.6750   -0.3379 S.O2    1  UNL1        0.0736
      3 O          61.1015   95.8366   -0.0049 O.2     1  UNL1       -0.1499
      4 C          61.4261   93.9107    0.8232 C.ar    1  UNL1        0.1252
      5 C          62.3466   93.2123    1.7797 C.ar    1  UNL1        0.0202
      6 C          61.7826   92.4481    2.9406 C.ar    1  UNL1        0.0034
      7 C          60.2981   92.3824    3.1451 C.ar    1  UNL1        0.0239
      8 C          59.3776   93.0808    2.1886 C.ar    1  UNL1        0.0034
      9 C          59.9416   93.8450    1.0276 C.ar    1  UNL1        0.0202
     10 C          59.7340   91.6181    4.3061 C.ar    1  UNL1        0.1107
     11 N          60.5082   90.7382    5.2422 N.ar    1  UNL1       -0.2383
     12 C          59.5494   90.1760    6.2494 C.ar    1  UNL1        0.0883
     13 C          58.1825   90.7084    5.9358 C.ar    1  UNL1        0.0560
     14 S          58.2967   91.5997    4.7347 S.2     1  UNL1       -0.0659
     15 C          59.8964   89.2448    7.3730 C.ar    1  UNL1        0.0182
     16 C          59.5990   87.7796    7.2518 C.ar    1  UNL1        0.0015
     17 C          59.9460   86.8484    8.3753 C.ar    1  UNL1        0.0039
     18 C          60.5904   87.3825    9.6202 C.ar    1  UNL1        0.0714
     19 C          60.8878   88.8476    9.7414 C.ar    1  UNL1        0.0039
     20 C          60.5408   89.7788    8.6178 C.ar    1  UNL1        0.0015
     21 C          60.9375   86.4513   10.7438 C.3     1  UNL1        0.4186
     22 F          61.2845   85.5201   11.8674 F       1  UNL1       -0.1659
     23 F          61.5469   85.4943    9.7625 F       1  UNL1       -0.1659
     24 F          60.3281   87.4082   11.7250 F       1  UNL1       -0.1659
     25 N          62.5542   95.4392   -1.4988 N.pl3   1  UNL1       -0.2150
     26 H          63.3745   95.9717   -1.3857 H       1  UNL1        0.1737
     27 C          61.8685   95.3920   -2.8321 C.ar    1  UNL1        0.0648
     28 C          60.6709   96.2573   -3.0906 C.ar    1  UNL1        0.0155
     29 C          59.9853   96.2101   -4.4238 C.ar    1  UNL1       -0.0029
     30 C          60.4972   95.2975   -5.4986 C.ar    1  UNL1       -0.0207
     31 C          61.6948   94.4321   -5.2401 C.ar    1  UNL1       -0.0029
     32 C          62.3804   94.4793   -3.9068 C.ar    1  UNL1        0.0155
     33 C          59.8115   95.2503   -6.8319 C.3     1  UNL1        0.0434
     34 C          58.3407   95.5281   -6.9291 C.3     1  UNL1        0.0734
     35 N          57.3503   94.4597   -6.5716 N.3     1  UNL1       -0.2949
     36 H          56.5687   94.5537   -7.2202 H       1  UNL1        0.1233
     37 C          57.7616   93.0174   -6.5954 C.3     1  UNL1        0.1029
     38 C          57.0971   92.0328   -5.6795 C.3     1  UNL1        0.1499
     39 O          56.3349   90.8738   -6.2502 O.3     1  UNL1       -0.3786
     40 H          55.9710   90.3388   -5.5275 H       1  UNL1        0.2108
     41 C          57.1948   92.2072   -4.1928 C.ar    1  UNL1        0.0248
     42 C          58.4374   92.7882   -3.5859 C.ar    1  UNL1        0.0012
     43 C          58.5351   92.9626   -2.0993 C.ar    1  UNL1        0.0204
     44 C          57.3902   92.5560   -1.2197 C.ar    1  UNL1        0.0989
     45 N          56.1476   91.9750   -1.8266 N.ar    1  UNL1       -0.2426
     46 C          56.0499   91.8006   -3.3132 C.ar    1  UNL1        0.0969
@<TRIPOS>BOND
     1     1     2    2
     2     2     3    2
     3     2    25    1
     4    25    27    1
     5    27    28   ar
     6    28    29   ar
     7    29    30   ar
     8    30    33    1
     9    33    34    1
    10    34    35    1
    11    35    37    1
    12    37    38    1
    13    38    39    1
    14    38    41    1
    15    41    42   ar
    16    42    43   ar
    17    43    44   ar
    18    44    45   ar
    19    45    46   ar
    20    30    31   ar
    21    31    32   ar
    22     2     4    1
    23     4     5   ar
    24     5     6   ar
    25     6     7   ar
    26     7    10    1
    27    10    11   ar
    28    11    12   ar
    29    12    15    1
    30    15    16   ar
    31    16    17   ar
    32    17    18   ar
    33    18    21    1
    34    21    22    1
    35    21    23    1
    36    21    24    1
    37    18    19   ar
    38    19    20   ar
    39    12    13   ar
    40    13    14   ar
    41     7     8   ar
    42     8     9   ar
    43    32    27   ar
    44     9     4   ar
    45    46    41   ar
    46    14    10   ar
    47    20    15   ar
    48    25    26    1
    49    35    36    1
    50    39    40    1
@<TRIPOS>MOLECULE
*****
 46 50 0 0 0
SMALL
GASTEIGER

@<TRIPOS>ATOM
      1 O          60.8220   89.8351    7.3995 O.2     1  UNL1       -0.1499
      2 S          59.4093   89.4793    7.0422 S.O2    1  UNL1        0.0736
      3 O          57.9966   89.1236    6.6849 O.2     1  UNL1       -0.1499
      4 C          59.4749   90.4034    5.8624 C.ar    1  UNL1        0.1252
      5 C          60.7933   90.6906    5.2071 C.ar    1  UNL1        0.0202
      6 C          60.8589   91.6146    4.0273 C.ar    1  UNL1        0.0034
      7 C          59.6062   92.2516    3.5030 C.ar    1  UNL1        0.0239
      8 C          58.2878   91.9644    4.1584 C.ar    1  UNL1        0.0034
      9 C          58.2222   91.0404    5.3381 C.ar    1  UNL1        0.0202
     10 C          59.6718   93.1757    2.3232 C.ar    1  UNL1        0.1107
     11 N          59.0476   92.9368    0.9804 N.ar    1  UNL1       -0.2383
     12 C          59.3631   94.1144    0.1065 C.ar    1  UNL1        0.0883
     13 C          60.1824   95.0811    0.9092 C.ar    1  UNL1        0.0560
     14 S          60.3731   94.5009    2.2793 S.2     1  UNL1       -0.0659
     15 C          58.9347   94.2938   -1.3198 C.ar    1  UNL1        0.0182
     16 C          58.3557   95.6022   -1.7700 C.ar    1  UNL1        0.0015
     17 C          57.9272   95.7817   -3.1962 C.ar    1  UNL1        0.0039
     18 C          58.0778   94.6526   -4.1723 C.ar    1  UNL1        0.0714
     19 C          58.6568   93.3442   -3.7221 C.ar    1  UNL1        0.0039
     20 C          59.0853   93.1648   -2.2959 C.ar    1  UNL1        0.0015
     21 C          57.6494   94.8321   -5.5986 C.3     1  UNL1        0.4186
     22 F          57.2209   95.0115   -7.0249 F       1  UNL1       -0.1659
     23 F          56.9561   96.1100   -5.2296 F       1  UNL1       -0.1659
     24 F          58.3426   93.5542   -5.9676 F       1  UNL1       -0.1659
     25 N          59.3437   88.5552    8.2219 N.pl3   1  UNL1       -0.2150
     26 H          58.6469   87.8610    8.2652 H       1  UNL1        0.1737
     27 C          60.3396   88.6889    9.3356 C.ar    1  UNL1        0.0648
     28 C          60.3070   89.8922   10.2305 C.ar    1  UNL1        0.0155
     29 C          61.3030   90.0257   11.3442 C.ar    1  UNL1       -0.0029
     30 C          62.3314   88.9560   11.5629 C.ar    1  UNL1       -0.0207
     31 C          62.3640   87.7526   10.6680 C.ar    1  UNL1       -0.0029
     32 C          61.3681   87.6191    9.5544 C.ar    1  UNL1        0.0155
     33 C          63.3273   89.0896   12.6767 C.3     1  UNL1        0.0434
     34 C          63.1091   90.1035   13.7603 C.3     1  UNL1        0.0734
     35 N          63.7978   91.4343   13.6920 N.3     1  UNL1       -0.2949
     36 H          64.4709   91.4572   14.4580 H       1  UNL1        0.1233
     37 C          64.5407   91.8316   12.4509 C.3     1  UNL1        0.1029
     38 C          65.9731   92.2673   12.5413 C.3     1  UNL1        0.1499
     39 O          66.7941   91.9011   13.7421 O.3     1  UNL1       -0.3786
     40 H          67.6905   92.2578   13.6419 H       1  UNL1        0.2108
     41 C          66.5846   93.0692   11.4308 C.ar    1  UNL1        0.0248
     42 C          67.4343   92.3920   10.3966 C.ar    1  UNL1        0.0012
     43 C          68.0459   93.1939    9.2862 C.ar    1  UNL1        0.0204
     44 C          67.8077   94.6728    9.2100 C.ar    1  UNL1        0.0989
     45 N          66.9581   95.3500   10.2442 N.ar    1  UNL1       -0.2426
     46 C          66.3465   94.5482   11.3546 C.ar    1  UNL1        0.0969
@<TRIPOS>BOND
     1     1     2    2
     2     2     3    2
     3     2    25    1
     4    25    27    1
     5    27    28   ar
     6    28    29   ar
     7    29    30   ar
     8    30    33    1
     9    33    34    1
    10    34    35    1
    11    35    37    1
    12    37    38    1
    13    38    39    1
    14    38    41    1
    15    41    42   ar
    16    42    43   ar
    17    43    44   ar
    18    44    45   ar
    19    45    46   ar
    20    30    31   ar
    21    31    32   ar
    22     2     4    1
    23     4     5   ar
    24     5     6   ar
    25     6     7   ar
    26     7    10    1
    27    10    11   ar
    28    11    12   ar
    29    12    15    1
    30    15    16   ar
    31    16    17   ar
    32    17    18   ar
    33    18    21    1
    34    21    22    1
    35    21    23    1
    36    21    24    1
    37    18    19   ar
    38    19    20   ar
    39    12    13   ar
    40    13    14   ar
    41     7     8   ar
    42     8     9   ar
    43    32    27   ar
    44     9     4   ar
    45    46    41   ar
    46    14    10   ar
    47    20    15   ar
    48    25    26    1
    49    35    36    1
    50    39    40    1
@<TRIPOS>MOLECULE
*****
 46 50 0 0 0
SMALL
GASTEIGER

@<TRIPOS>ATOM
      1 O          60.9764   90.0047    6.9279 O.2     1  UNL1       -0.1499
      2 S          59.5302   89.9693    6.5315 S.O2    1  UNL1        0.0736
      3 O          58.0839   89.9339    6.1352 O.2     1  UNL1       -0.1499
      4 C          59.8361   90.8259    5.3387 C.ar    1  UNL1        0.1252
      5 C          61.2306   90.8747    4.7883 C.ar    1  UNL1        0.0202
      6 C          61.5366   91.7312    3.5956 C.ar    1  UNL1        0.0034
      7 C          60.4480   92.5389    2.9532 C.ar    1  UNL1        0.0239
      8 C          59.0535   92.4900    3.5036 C.ar    1  UNL1        0.0034
      9 C          58.7475   91.6335    4.6963 C.ar    1  UNL1        0.0202
     10 C          60.7539   93.3954    1.7604 C.ar    1  UNL1        0.1107
     11 N          61.7239   93.0668    0.6644 N.ar    1  UNL1       -0.2383
     12 C          61.7130   94.1993   -0.3192 C.ar    1  UNL1        0.0883
     13 C          60.7363   95.2279    0.1689 C.ar    1  UNL1        0.0560
     14 S          60.1436   94.7310    1.4541 S.2     1  UNL1       -0.0659
     15 C          62.5346   94.2877   -1.5711 C.ar    1  UNL1        0.0182
     16 C          62.1049   93.5491   -2.8038 C.ar    1  UNL1        0.0015
     17 C          62.9264   93.6374   -4.0557 C.ar    1  UNL1        0.0039
     18 C          64.1777   94.4646   -4.0748 C.ar    1  UNL1        0.0714
     19 C          64.6074   95.2033   -2.8421 C.ar    1  UNL1        0.0039
     20 C          63.7858   95.1148   -1.5902 C.ar    1  UNL1        0.0015
     21 C          64.9993   94.5530   -5.3267 C.3     1  UNL1        0.4186
     22 F          65.8208   94.6415   -6.5786 F       1  UNL1       -0.1659
     23 F          64.5844   95.9844   -5.4978 F       1  UNL1       -0.1659
     24 F          65.4140   93.1218   -5.1556 F       1  UNL1       -0.1659
     25 N          59.2242   89.1128    7.7243 N.pl3   1  UNL1       -0.2150
     26 H          58.3975   88.5786    7.7477 H       1  UNL1        0.1737
     27 C          60.1778   89.0700    8.8814 C.ar    1  UNL1        0.0648
     28 C          60.1971   90.1898    9.8792 C.ar    1  UNL1        0.0155
     29 C          61.1507   90.1470   11.0362 C.ar    1  UNL1       -0.0029
     30 C          62.0850   88.9844   11.1955 C.ar    1  UNL1       -0.0207
     31 C          62.0657   87.8645   10.1978 C.ar    1  UNL1       -0.0029
     32 C          61.1121   87.9073    9.0407 C.ar    1  UNL1        0.0155
     33 C          63.0386   88.9416   12.3526 C.3     1  UNL1        0.0434
     34 C          62.9466   89.9720   13.4388 C.3     1  UNL1        0.0734
     35 N          63.4517   91.3636   13.1972 N.3     1  UNL1       -0.2949
     36 H          63.9230   91.6584   14.0524 H       1  UNL1        0.1233
     37 C          64.3995   91.6316   12.0660 C.3     1  UNL1        0.1029
     38 C          65.7070   92.3178   12.3296 C.3     1  UNL1        0.1499
     39 O          66.2898   92.3156   13.7117 O.3     1  UNL1       -0.3786
     40 H          67.1308   92.7990   13.7088 H       1  UNL1        0.2108
     41 C          66.4317   93.0063   11.2111 C.ar    1  UNL1        0.0248
     42 C          67.5133   92.2855   10.4625 C.ar    1  UNL1        0.0012
     43 C          68.2380   92.9738    9.3441 C.ar    1  UNL1        0.0204
     44 C          67.8811   94.3830    8.9743 C.ar    1  UNL1        0.0989
     45 N          66.7994   95.1038    9.7229 N.ar    1  UNL1       -0.2426
     46 C          66.0747   94.4154   10.8413 C.ar    1  UNL1        0.0969
@<TRIPOS>BOND
     1     1     2    2
     2     2     3    2
     3     2    25    1
     4    25    27    1
     5    27    28   ar
     6    28    29   ar
     7    29    30   ar
     8    30    33    1
     9    33    34    1
    10    34    35    1
    11    35    37    1
    12    37    38    1
    13    38    39    1
    14    38    41    1
    15    41    42   ar
    16    42    43   ar
    17    43    44   ar
    18    44    45   ar
    19    45    46   ar
    20    30    31   ar
    21    31    32   ar
    22     2     4    1
    23     4     5   ar
    24     5     6   ar
    25     6     7   ar
    26     7    10    1
    27    10    11   ar
    28    11    12   ar
    29    12    15    1
    30    15    16   ar
    31    16    17   ar
    32    17    18   ar
    33    18    21    1
    34    21    22    1
    35    21    23    1
    36    21    24    1
    37    18    19   ar
    38    19    20   ar
    39    12    13   ar
    40    13    14   ar
    41     7     8   ar
    42     8     9   ar
    43    32    27   ar
    44     9     4   ar
    45    46    41   ar
    46    14    10   ar
    47    20    15   ar
    48    25    26    1
    49    35    36    1
    50    39    40    1
