@<TRIPOS>MOLECULE
*****
 52 55 0 0 0
SMALL
GASTEIGER

@<TRIPOS>ATOM
      1 C          62.4866   88.0166   11.2188 C.3     1  UNL1        0.0774
      2 C          60.7522   88.4768    9.3399 C.2     1  UNL1        0.2403
      3 O          60.0274   89.4306   10.2426 O.2     1  UNL1       -0.2733
      4 N          61.9819   87.7698    9.8280 N.am    1  UNL1       -0.3043
      5 H          62.4576   87.1438    9.2355 H       1  UNL1        0.1494
      6 C          60.2475   88.2300    7.9491 C.3     1  UNL1        0.1496
      7 N          59.0056   90.9680    5.3585 N.am    1  UNL1       -0.2567
      8 C          57.7192   91.4941    4.7942 C.3     1  UNL1        0.1168
      9 C          58.9834   89.8621    6.3716 C.2     1  UNL1        0.3046
     10 O          57.6748   89.2823    6.8206 O.2     1  UNL1       -0.2526
     11 N          60.2697   89.3360    6.9359 N.am    1  UNL1       -0.2824
     12 H          61.1286   89.7164    6.6413 H       1  UNL1        0.1514
     13 C          60.3141   91.5477    4.9096 C.3     1  UNL1        0.1413
     14 C          59.8573   93.2825    1.4676 C.ar    1  UNL1        0.0875
     15 N          59.2919   92.7407    2.7470 N.ar    1  UNL1       -0.2453
     16 C          60.4265   92.1881    3.5578 C.ar    1  UNL1        0.0858
     17 C          61.6931   92.3884    2.7795 C.ar    1  UNL1        0.0530
     18 S          61.3414   93.0647    1.4877 S.2     1  UNL1       -0.0705
     19 C          59.2367   95.3945    0.0876 C.3     1  UNL1        0.0069
     20 C          59.0759   93.9286    0.3622 C.3     1  UNL1        0.0465
     21 C          58.1338   93.1089   -0.4687 C.3     1  UNL1        0.0069
     22 C          59.7205   86.8774    7.5715 C.3     1  UNL1        0.0270
     23 C          60.6420   85.8515    6.9812 C.3     1  UNL1        0.0022
     24 C          58.2721   86.5507    7.7842 C.3     1  UNL1        0.0022
     25 C          63.1160   89.3332   11.5657 C.3     1  UNL1        0.0390
     26 C          62.7272   90.0404   12.8301 C.3     1  UNL1        0.0941
     27 N          63.7609   90.7870   13.6201 N.3     1  UNL1       -0.1988
     28 N          64.5778   91.8592   12.9620 N.am    1  UNL1       -0.2120
     29 C          66.0120   92.0567   13.3546 C.2     1  UNL1        0.4155
     30 O          66.6293   91.1820   14.4053 O.2     1  UNL1       -0.2251
     31 H          64.1727   92.4332   12.2724 H       1  UNL1        0.1726
     32 O          66.8290   93.1288   12.6964 O.3     1  UNL1       -0.4282
     33 C          66.1484   94.2880   12.0308 C.3     1  UNL1        0.2447
     34 C          66.6595   94.8052   10.7188 C.ar    1  UNL1        0.0714
     35 C          66.7883   96.2481   10.3297 C.ar    1  UNL1        0.1053
     36 N          67.3399   96.3049    8.9359 N.ar    1  UNL1       -0.2350
     37 C          67.5522   94.8971    8.4637 C.ar    1  UNL1        0.1343
     38 S          67.1317   93.9702    9.5656 S.2     1  UNL1       -0.0652
     39 C          63.9776   90.4615   15.0682 C.3     1  UNL1        0.1182
     40 C          63.8248   89.0494   15.5505 C.ar    1  UNL1       -0.0045
     41 C          63.0083   88.7593   16.7749 C.ar    1  UNL1       -0.0029
     42 C          62.8554   87.3472   17.2572 C.ar    1  UNL1       -0.0003
     43 C          63.5191   86.2252   16.5151 C.ar    1  UNL1       -0.0000
     44 C          64.3356   86.5153   15.2907 C.ar    1  UNL1       -0.0003
     45 C          64.4884   87.9274   14.8085 C.ar    1  UNL1       -0.0029
     46 C          62.3620   86.9467   12.2628 C.3     1  UNL1        0.0459
     47 C          62.6954   85.5243   11.9225 C.ar    1  UNL1       -0.0205
     48 C          63.0299   85.1500   10.5091 C.ar    1  UNL1       -0.0042
     49 C          63.3633   83.7276   10.1688 C.ar    1  UNL1       -0.0003
     50 C          63.3621   82.6796   11.2420 C.ar    1  UNL1       -0.0000
     51 C          63.0275   83.0540   12.6555 C.ar    1  UNL1       -0.0003
     52 C          62.6941   84.4763   12.9958 C.ar    1  UNL1       -0.0042
@<TRIPOS>BOND
     1    19    20    1
     2    20    21    1
     3    20    14    1
     4    14    15   ar
     5    15    16   ar
     6    16    13    1
     7    13     7    1
     8     7     8    1
     9     7     9   am
    10     9    10    2
    11     9    11   am
    12     6    11    1
    13     6     2    1
    14     2     3    2
    15     2     4   am
    16     4     1    1
    17     1    25    1
    18    25    26    1
    19    26    27    1
    20    27    39    1
    21    39    40    1
    22    40    41   ar
    23    41    42   ar
    24    42    43   ar
    25    43    44   ar
    26    44    45   ar
    27    27    28    1
    28    28    29   am
    29    29    30    2
    30    29    32    1
    31    32    33    1
    32    33    34    1
    33    34    35   ar
    34    35    36   ar
    35    36    37   ar
    36    37    38   ar
    37     1    46    1
    38    46    47    1
    39    47    48   ar
    40    48    49   ar
    41    49    50   ar
    42    50    51   ar
    43    51    52   ar
    44     6    22    1
    45    22    23    1
    46    22    24    1
    47    16    17   ar
    48    17    18   ar
    49    18    14   ar
    50    45    40   ar
    51    38    34   ar
    52    52    47   ar
    53    11    12    1
    54     4     5    1
    55    28    31    1
@<TRIPOS>MOLECULE
*****
 52 55 0 0 0
SMALL
GASTEIGER

@<TRIPOS>ATOM
      1 C          63.0283   85.1550   12.9909 C.3     1  UNL1        0.0774
      2 C          64.0690   87.1079   14.3524 C.2     1  UNL1        0.2403
      3 O          65.2748   86.2638   14.6414 O.2     1  UNL1       -0.2733
      4 N          62.9457   86.5535   13.5271 N.am    1  UNL1       -0.3043
      5 H          62.1543   87.1074   13.3374 H       1  UNL1        0.1494
      6 C          63.9864   88.5063   14.8886 C.3     1  UNL1        0.1496
      7 N          64.0691   91.1057   11.8909 N.am    1  UNL1       -0.2567
      8 C          63.3340   91.3880   10.6142 C.3     1  UNL1        0.1168
      9 C          63.6602   89.9472   12.7514 C.2     1  UNL1        0.3046
     10 O          62.5160   89.0709   12.3353 O.2     1  UNL1       -0.2526
     11 N          64.3954   89.6649   14.0281 N.am    1  UNL1       -0.2824
     12 H          65.1463   90.2400   14.3012 H       1  UNL1        0.1514
     13 C          65.2132   91.9819   12.3070 C.3     1  UNL1        0.1413
     14 C          66.5116   94.6452    9.7997 C.ar    1  UNL1        0.0875
     15 N          65.5151   94.1835   10.8213 N.ar    1  UNL1       -0.2453
     16 C          65.9271   92.8183   11.2867 C.ar    1  UNL1        0.0858
     17 C          67.1782   92.4364   10.5527 C.ar    1  UNL1        0.0530
     18 S          67.5396   93.5654    9.6337 S.2     1  UNL1       -0.0705
     19 C          67.6534   96.3690    8.2265 C.3     1  UNL1        0.0069
     20 C          66.4850   95.9566    9.0719 C.3     1  UNL1        0.0465
     21 C          65.2899   96.8554    9.1894 C.3     1  UNL1        0.0069
     22 C          63.4948   88.7462   16.2853 C.3     1  UNL1        0.0270
     23 C          63.4039   90.1453   16.8185 C.3     1  UNL1        0.0022
     24 C          63.0940   87.5870   17.1487 C.3     1  UNL1        0.0022
     25 C          62.6334   84.8713   11.5720 C.3     1  UNL1        0.0390
     26 C          61.7204   85.8135   10.8449 C.3     1  UNL1        0.0941
     27 N          62.0989   86.3266    9.4871 N.3     1  UNL1       -0.1988
     28 N          61.5759   87.6501    9.0129 N.am    1  UNL1       -0.2120
     29 C          60.1858   87.7520    8.4583 C.2     1  UNL1        0.4155
     30 O          59.3190   86.5306    8.3778 O.2     1  UNL1       -0.2251
     31 H          62.1448   88.4518    9.0657 H       1  UNL1        0.1726
     32 O          59.6628   89.0755    7.9841 O.3     1  UNL1       -0.4282
     33 C          58.8100   89.1471    6.7522 C.3     1  UNL1        0.2447
     34 C          58.9149   90.3294    5.8350 C.ar    1  UNL1        0.0714
     35 C          57.7734   91.1727    5.3495 C.ar    1  UNL1        0.1053
     36 N          58.3328   92.2405    4.4568 N.ar    1  UNL1       -0.2350
     37 C          59.8200   92.0571    4.3906 C.ar    1  UNL1        0.1343
     38 S          60.1798   90.8760    5.2424 S.2     1  UNL1       -0.0652
     39 C          63.0004   85.5163    8.6036 C.3     1  UNL1        0.1182
     40 C          62.4850   84.9704    7.3050 C.ar    1  UNL1       -0.0045
     41 C          63.4121   84.8149    6.1361 C.ar    1  UNL1       -0.0029
     42 C          62.8967   84.2691    4.8375 C.ar    1  UNL1       -0.0003
     43 C          61.4542   83.8789    4.7078 C.ar    1  UNL1       -0.0000
     44 C          60.5270   84.0344    5.8766 C.ar    1  UNL1       -0.0003
     45 C          61.0425   84.5802    7.1752 C.ar    1  UNL1       -0.0029
     46 C          63.5059   84.0403   13.8737 C.3     1  UNL1        0.0459
     47 C          62.9932   82.6462   13.6651 C.ar    1  UNL1       -0.0205
     48 C          61.7504   82.1907   14.3709 C.ar    1  UNL1       -0.0042
     49 C          61.2377   80.7966   14.1623 C.ar    1  UNL1       -0.0003
     50 C          61.9676   79.8579   13.2479 C.ar    1  UNL1       -0.0000
     51 C          63.2104   80.3134   12.5421 C.ar    1  UNL1       -0.0003
     52 C          63.7232   81.7075   12.7507 C.ar    1  UNL1       -0.0042
@<TRIPOS>BOND
     1    19    20    1
     2    20    21    1
     3    20    14    1
     4    14    15   ar
     5    15    16   ar
     6    16    13    1
     7    13     7    1
     8     7     8    1
     9     7     9   am
    10     9    10    2
    11     9    11   am
    12     6    11    1
    13     6     2    1
    14     2     3    2
    15     2     4   am
    16     4     1    1
    17     1    25    1
    18    25    26    1
    19    26    27    1
    20    27    39    1
    21    39    40    1
    22    40    41   ar
    23    41    42   ar
    24    42    43   ar
    25    43    44   ar
    26    44    45   ar
    27    27    28    1
    28    28    29   am
    29    29    30    2
    30    29    32    1
    31    32    33    1
    32    33    34    1
    33    34    35   ar
    34    35    36   ar
    35    36    37   ar
    36    37    38   ar
    37     1    46    1
    38    46    47    1
    39    47    48   ar
    40    48    49   ar
    41    49    50   ar
    42    50    51   ar
    43    51    52   ar
    44     6    22    1
    45    22    23    1
    46    22    24    1
    47    16    17   ar
    48    17    18   ar
    49    18    14   ar
    50    45    40   ar
    51    38    34   ar
    52    52    47   ar
    53    11    12    1
    54     4     5    1
    55    28    31    1
@<TRIPOS>MOLECULE
*****
 52 55 0 0 0
SMALL
GASTEIGER

@<TRIPOS>ATOM
      1 C          63.1147   85.9668   12.7601 C.3     1  UNL1        0.0774
      2 C          63.7383   87.9632   14.3015 C.2     1  UNL1        0.2403
      3 O          63.7813   87.0385   15.4817 O.2     1  UNL1       -0.2733
      4 N          63.4050   87.4273   12.9406 N.am    1  UNL1       -0.3043
      5 H          63.3767   88.0343   12.1659 H       1  UNL1        0.1494
      6 C          64.0285   89.4237   14.4820 C.3     1  UNL1        0.1496
      7 N          64.1520   91.4027   11.0442 N.am    1  UNL1       -0.2567
      8 C          63.2392   91.7626    9.9096 C.3     1  UNL1        0.1168
      9 C          63.6339   90.5932   12.1958 C.2     1  UNL1        0.3046
     10 O          62.2030   90.1434   12.2127 O.2     1  UNL1       -0.2526
     11 N          64.5467   90.2333   13.3304 N.am    1  UNL1       -0.2824
     12 H          65.4858   90.5285   13.3193 H       1  UNL1        0.1514
     13 C          65.5829   91.8525   11.0273 C.3     1  UNL1        0.1413
     14 C          67.2994   93.2199   14.2287 C.ar    1  UNL1        0.0875
     15 N          66.9658   92.0881   13.3026 N.ar    1  UNL1       -0.2453
     16 C          66.1362   92.6369   12.1799 C.ar    1  UNL1        0.0858
     17 C          65.9570   94.1080   12.4122 C.ar    1  UNL1        0.0530
     18 S          66.6759   94.4683   13.6784 S.2     1  UNL1       -0.0705
     19 C          68.0729   91.8675   16.3079 C.3     1  UNL1        0.0069
     20 C          68.1135   93.1208   15.4846 C.3     1  UNL1        0.0465
     21 C          68.9683   94.2749   15.9174 C.3     1  UNL1        0.0069
     22 C          63.8007   90.0746   15.8140 C.3     1  UNL1        0.0270
     23 C          63.0985   89.3230   16.9058 C.3     1  UNL1        0.0022
     24 C          64.2751   91.4771   16.0543 C.3     1  UNL1        0.0022
     25 C          61.9703   85.5311   11.8938 C.3     1  UNL1        0.0390
     26 C          61.2187   86.5421   11.0796 C.3     1  UNL1        0.0941
     27 N          61.7195   86.9328    9.7207 N.3     1  UNL1       -0.1988
     28 N          61.2451   88.2055    9.0840 N.am    1  UNL1       -0.2120
     29 C          59.8648   88.2838    8.5019 C.2     1  UNL1        0.4155
     30 O          58.9590   87.0895    8.5565 O.2     1  UNL1       -0.2251
     31 H          61.8397   88.9893    9.0481 H       1  UNL1        0.1726
     32 O          59.3905   89.5564    7.8652 O.3     1  UNL1       -0.4282
     33 C          58.7731   89.5265    6.4985 C.3     1  UNL1        0.2447
     34 C          59.0281   90.6481    5.5356 C.ar    1  UNL1        0.0714
     35 C          57.9886   91.5450    4.9315 C.ar    1  UNL1        0.1053
     36 N          58.6854   92.5209    4.0304 N.ar    1  UNL1       -0.2350
     37 C          60.1556   92.2271    4.0775 C.ar    1  UNL1        0.1343
     38 S          60.3674   91.0697    5.0078 S.2     1  UNL1       -0.0652
     39 C          62.6945   86.0510    8.9985 C.3     1  UNL1        0.1182
     40 C          62.2817   85.3516    7.7373 C.ar    1  UNL1       -0.0045
     41 C          63.3241   84.8407    6.7874 C.ar    1  UNL1       -0.0029
     42 C          62.9113   84.1414    5.5263 C.ar    1  UNL1       -0.0003
     43 C          61.4560   83.9529    5.2151 C.ar    1  UNL1       -0.0000
     44 C          60.4137   84.4637    6.1651 C.ar    1  UNL1       -0.0003
     45 C          60.8265   85.1631    7.4262 C.ar    1  UNL1       -0.0029
     46 C          63.9688   84.9420   13.4459 C.3     1  UNL1        0.0459
     47 C          63.5247   83.5103   13.5000 C.ar    1  UNL1       -0.0205
     48 C          62.4053   83.1062   14.4130 C.ar    1  UNL1       -0.0042
     49 C          61.9612   81.6745   14.4671 C.ar    1  UNL1       -0.0003
     50 C          62.6365   80.6468   13.6082 C.ar    1  UNL1       -0.0000
     51 C          63.7560   81.0509   12.6951 C.ar    1  UNL1       -0.0003
     52 C          64.2001   82.4826   12.6410 C.ar    1  UNL1       -0.0042
@<TRIPOS>BOND
     1    19    20    1
     2    20    21    1
     3    20    14    1
     4    14    15   ar
     5    15    16   ar
     6    16    13    1
     7    13     7    1
     8     7     8    1
     9     7     9   am
    10     9    10    2
    11     9    11   am
    12     6    11    1
    13     6     2    1
    14     2     3    2
    15     2     4   am
    16     4     1    1
    17     1    25    1
    18    25    26    1
    19    26    27    1
    20    27    39    1
    21    39    40    1
    22    40    41   ar
    23    41    42   ar
    24    42    43   ar
    25    43    44   ar
    26    44    45   ar
    27    27    28    1
    28    28    29   am
    29    29    30    2
    30    29    32    1
    31    32    33    1
    32    33    34    1
    33    34    35   ar
    34    35    36   ar
    35    36    37   ar
    36    37    38   ar
    37     1    46    1
    38    46    47    1
    39    47    48   ar
    40    48    49   ar
    41    49    50   ar
    42    50    51   ar
    43    51    52   ar
    44     6    22    1
    45    22    23    1
    46    22    24    1
    47    16    17   ar
    48    17    18   ar
    49    18    14   ar
    50    45    40   ar
    51    38    34   ar
    52    52    47   ar
    53    11    12    1
    54     4     5    1
    55    28    31    1
@<TRIPOS>MOLECULE
*****
 52 55 0 0 0
SMALL
GASTEIGER

@<TRIPOS>ATOM
      1 C          62.7412   86.3226   12.2568 C.3     1  UNL1        0.0774
      2 C          63.4959   88.7211   12.9109 C.2     1  UNL1        0.2403
      3 O          63.7253   88.2643   14.3211 O.2     1  UNL1       -0.2733
      4 N          63.0038   87.7502   11.8787 N.am    1  UNL1       -0.3043
      5 H          62.8532   88.0500   10.9531 H       1  UNL1        0.1494
      6 C          63.7585   90.1487   12.5328 C.3     1  UNL1        0.1496
      7 N          65.7539   92.1370   15.3284 N.am    1  UNL1       -0.2567
      8 C          65.5730   92.5853   16.7483 C.3     1  UNL1        0.1168
      9 C          64.6658   91.3670   14.6406 C.2     1  UNL1        0.3046
     10 O          63.3967   91.0453   15.3727 O.2     1  UNL1       -0.2526
     11 N          64.8467   90.9187   13.2206 N.am    1  UNL1       -0.2824
     12 H          65.6796   91.1298   12.7401 H       1  UNL1        0.1514
     13 C          67.0229   92.4586   14.5962 C.3     1  UNL1        0.1413
     14 C          67.3116   93.4780   10.8622 C.ar    1  UNL1        0.0875
     15 N          67.6361   92.5512   11.9961 N.ar    1  UNL1       -0.2453
     16 C          66.9650   93.0763   13.2305 C.ar    1  UNL1        0.0858
     17 C          66.2257   94.3277   12.8595 C.ar    1  UNL1        0.0530
     18 S          66.4399   94.5760   11.3958 S.2     1  UNL1       -0.0705
     19 C          67.5905   94.4611    8.4735 C.3     1  UNL1        0.0069
     20 C          67.7770   93.3324    9.4437 C.3     1  UNL1        0.0465
     21 C          68.4291   92.0582    8.9953 C.3     1  UNL1        0.0069
     22 C          62.9330   90.8063   11.4670 C.3     1  UNL1        0.0270
     23 C          61.4447   90.6206   11.4496 C.3     1  UNL1        0.0022
     24 C          63.5959   91.6496   10.4184 C.3     1  UNL1        0.0022
     25 C          61.5892   85.5838   11.6426 C.3     1  UNL1        0.0390
     26 C          60.7557   86.2416   10.5832 C.3     1  UNL1        0.0941
     27 N          61.4074   86.7860    9.3466 N.3     1  UNL1       -0.1988
     28 N          60.9835   88.1168    8.7994 N.am    1  UNL1       -0.2120
     29 C          59.6419   88.2658    8.1451 C.2     1  UNL1        0.4155
     30 O          58.7243   87.0841    8.0381 O.2     1  UNL1       -0.2251
     31 H          61.5858   88.8924    8.8697 H       1  UNL1        0.1726
     32 O          59.2180   89.5965    7.5979 O.3     1  UNL1       -0.4282
     33 C          58.6679   89.6943    6.2059 C.3     1  UNL1        0.2447
     34 C          59.1096   90.8063    5.3012 C.ar    1  UNL1        0.0714
     35 C          58.2268   91.8648    4.7094 C.ar    1  UNL1        0.1053
     36 N          59.0832   92.7677    3.8719 N.ar    1  UNL1       -0.2350
     37 C          60.4953   92.2672    3.9462 C.ar    1  UNL1        0.1343
     38 S          60.5116   91.0550    4.8295 S.2     1  UNL1       -0.0652
     39 C          62.4828   85.9998    8.6574 C.3     1  UNL1        0.1182
     40 C          62.1749   85.2588    7.3900 C.ar    1  UNL1       -0.0045
     41 C          60.7560   84.9098    7.0510 C.ar    1  UNL1       -0.0029
     42 C          60.4482   84.1689    5.7837 C.ar    1  UNL1       -0.0003
     43 C          61.5592   83.7769    4.8553 C.ar    1  UNL1       -0.0000
     44 C          62.9781   84.1259    5.1942 C.ar    1  UNL1       -0.0003
     45 C          63.2859   84.8669    6.4615 C.ar    1  UNL1       -0.0029
     46 C          63.6305   85.6337   13.2491 C.3     1  UNL1        0.0459
     47 C          63.5577   84.1447   13.4144 C.ar    1  UNL1       -0.0205
     48 C          62.6530   83.5486   14.4518 C.ar    1  UNL1       -0.0042
     49 C          62.5802   82.0595   14.6171 C.ar    1  UNL1       -0.0003
     50 C          63.4121   81.1665   13.7450 C.ar    1  UNL1       -0.0000
     51 C          64.3168   81.7626   12.7076 C.ar    1  UNL1       -0.0003
     52 C          64.3896   83.2517   12.5423 C.ar    1  UNL1       -0.0042
@<TRIPOS>BOND
     1    19    20    1
     2    20    21    1
     3    20    14    1
     4    14    15   ar
     5    15    16   ar
     6    16    13    1
     7    13     7    1
     8     7     8    1
     9     7     9   am
    10     9    10    2
    11     9    11   am
    12     6    11    1
    13     6     2    1
    14     2     3    2
    15     2     4   am
    16     4     1    1
    17     1    25    1
    18    25    26    1
    19    26    27    1
    20    27    39    1
    21    39    40    1
    22    40    41   ar
    23    41    42   ar
    24    42    43   ar
    25    43    44   ar
    26    44    45   ar
    27    27    28    1
    28    28    29   am
    29    29    30    2
    30    29    32    1
    31    32    33    1
    32    33    34    1
    33    34    35   ar
    34    35    36   ar
    35    36    37   ar
    36    37    38   ar
    37     1    46    1
    38    46    47    1
    39    47    48   ar
    40    48    49   ar
    41    49    50   ar
    42    50    51   ar
    43    51    52   ar
    44     6    22    1
    45    22    23    1
    46    22    24    1
    47    16    17   ar
    48    17    18   ar
    49    18    14   ar
    50    45    40   ar
    51    38    34   ar
    52    52    47   ar
    53    11    12    1
    54     4     5    1
    55    28    31    1
@<TRIPOS>MOLECULE
*****
 52 55 0 0 0
SMALL
GASTEIGER

@<TRIPOS>ATOM
      1 C          62.7026   89.9257   10.9306 C.3     1  UNL1        0.0774
      2 C          63.5302   90.3046   13.3641 C.2     1  UNL1        0.2403
      3 O          63.0043   91.7088   13.3243 O.2     1  UNL1       -0.2733
      4 N          63.3793   89.4130   12.1672 N.am    1  UNL1       -0.3043
      5 H          63.7245   88.4914   12.1934 H       1  UNL1        0.1494
      6 C          64.2069   89.7919   14.6007 C.3     1  UNL1        0.1496
      7 N          63.4891   86.1896   16.1034 N.am    1  UNL1       -0.2567
      8 C          62.5878   85.5405   17.1116 C.3     1  UNL1        0.1168
      9 C          63.3973   87.6662   15.8561 C.2     1  UNL1        0.3046
     10 O          62.4042   88.4938   16.6170 O.2     1  UNL1       -0.2526
     11 N          64.2987   88.3152   14.8480 N.am    1  UNL1       -0.2824
     12 H          64.9505   87.7721   14.3486 H       1  UNL1        0.1514
     13 C          64.4822   85.3620   15.3426 C.3     1  UNL1        0.1413
     14 C          63.5877   82.9319   12.4512 C.ar    1  UNL1        0.0875
     15 N          64.2333   84.1893   12.9535 N.ar    1  UNL1       -0.2453
     16 C          64.0067   84.2671   14.4342 C.ar    1  UNL1        0.0858
     17 C          63.2210   83.0579   14.8471 C.ar    1  UNL1        0.0530
     18 S          62.9621   82.2326   13.6215 S.2     1  UNL1       -0.0705
     19 C          64.0438   83.3625    9.9299 C.3     1  UNL1        0.0069
     20 C          63.5708   82.4572   11.0284 C.3     1  UNL1        0.0465
     21 C          63.0808   81.0771   10.7041 C.3     1  UNL1        0.0069
     22 C          64.7918   90.7558   15.5900 C.3     1  UNL1        0.0270
     23 C          66.2796   90.9178   15.6897 C.3     1  UNL1        0.0022
     24 C          63.8887   91.5577   16.4797 C.3     1  UNL1        0.0022
     25 C          63.4405   90.8365    9.9947 C.3     1  UNL1        0.0390
     26 C          63.9188   92.1754   10.4727 C.3     1  UNL1        0.0941
     27 N          65.3881   92.4366   10.6244 N.3     1  UNL1       -0.1988
     28 N          66.0505   93.4980    9.7969 N.am    1  UNL1       -0.2120
     29 C          67.4266   93.2692    9.2454 C.2     1  UNL1        0.4155
     30 O          68.1402   91.9790    9.5216 O.2     1  UNL1       -0.2251
     31 H          65.5821   94.3447    9.6157 H       1  UNL1        0.1726
     32 O          68.0890   94.3305    8.4179 O.3     1  UNL1       -0.4282
     33 C          67.8672   95.7789    8.7386 C.3     1  UNL1        0.2447
     34 C          66.6506   96.1988    9.5090 C.ar    1  UNL1        0.0714
     35 C          66.5809   96.4299   10.9895 C.ar    1  UNL1        0.1053
     36 N          65.1773   96.8352   11.3297 N.ar    1  UNL1       -0.2350
     37 C          64.3796   96.8546   10.0596 C.ar    1  UNL1        0.1343
     38 S          65.2902   96.4612    8.9343 S.2     1  UNL1       -0.0652
     39 C          66.1949   91.6366   11.6036 C.3     1  UNL1        0.1182
     40 C          66.8701   92.3208   12.7552 C.ar    1  UNL1       -0.0045
     41 C          68.2097   91.8422   13.2310 C.ar    1  UNL1       -0.0029
     42 C          68.8849   92.5264   14.3825 C.ar    1  UNL1       -0.0003
     43 C          68.2205   93.6892   15.0582 C.ar    1  UNL1       -0.0000
     44 C          66.8809   94.1678   14.5823 C.ar    1  UNL1       -0.0003
     45 C          66.2057   93.4836   13.4308 C.ar    1  UNL1       -0.0029
     46 C          61.2879   89.5277   10.6300 C.3     1  UNL1        0.0459
     47 C          61.0117   88.4050    9.6744 C.ar    1  UNL1       -0.0205
     48 C          59.8848   88.5174    8.6908 C.ar    1  UNL1       -0.0042
     49 C          59.6086   87.3947    7.7352 C.ar    1  UNL1       -0.0003
     50 C          60.4592   86.1595    7.7632 C.ar    1  UNL1       -0.0000
     51 C          61.5862   86.0471    8.7468 C.ar    1  UNL1       -0.0003
     52 C          61.8624   87.1698    9.7024 C.ar    1  UNL1       -0.0042
@<TRIPOS>BOND
     1    19    20    1
     2    20    21    1
     3    20    14    1
     4    14    15   ar
     5    15    16   ar
     6    16    13    1
     7    13     7    1
     8     7     8    1
     9     7     9   am
    10     9    10    2
    11     9    11   am
    12     6    11    1
    13     6     2    1
    14     2     3    2
    15     2     4   am
    16     4     1    1
    17     1    25    1
    18    25    26    1
    19    26    27    1
    20    27    39    1
    21    39    40    1
    22    40    41   ar
    23    41    42   ar
    24    42    43   ar
    25    43    44   ar
    26    44    45   ar
    27    27    28    1
    28    28    29   am
    29    29    30    2
    30    29    32    1
    31    32    33    1
    32    33    34    1
    33    34    35   ar
    34    35    36   ar
    35    36    37   ar
    36    37    38   ar
    37     1    46    1
    38    46    47    1
    39    47    48   ar
    40    48    49   ar
    41    49    50   ar
    42    50    51   ar
    43    51    52   ar
    44     6    22    1
    45    22    23    1
    46    22    24    1
    47    16    17   ar
    48    17    18   ar
    49    18    14   ar
    50    45    40   ar
    51    38    34   ar
    52    52    47   ar
    53    11    12    1
    54     4     5    1
    55    28    31    1
@<TRIPOS>MOLECULE
*****
 52 55 0 0 0
SMALL
GASTEIGER

@<TRIPOS>ATOM
      1 C          61.9202   88.2457   11.1606 C.3     1  UNL1        0.0774
      2 C          63.3773   89.9537   12.4682 C.2     1  UNL1        0.2403
      3 O          63.4613   90.8182   11.2453 O.2     1  UNL1       -0.2733
      4 N          62.6068   88.6674   12.4259 N.am    1  UNL1       -0.3043
      5 H          62.5517   88.0999   13.2285 H       1  UNL1        0.1494
      6 C          64.0638   90.3754   13.7334 C.3     1  UNL1        0.1496
      7 N          66.9631   93.0036   14.3947 N.am    1  UNL1       -0.2567
      8 C          68.3517   93.0416   14.9606 C.3     1  UNL1        0.1168
      9 C          66.2078   91.7085   14.3470 C.2     1  UNL1        0.3046
     10 O          66.8411   90.4514   14.8652 O.2     1  UNL1       -0.2526
     11 N          64.8191   91.6705   13.7811 N.am    1  UNL1       -0.2824
     12 H          64.4034   92.4956   13.4410 H       1  UNL1        0.1514
     13 C          66.3297   94.2607   13.8765 C.3     1  UNL1        0.1413
     14 C          67.1082   94.6025   10.0893 C.ar    1  UNL1        0.0875
     15 N          67.1128   93.8074   11.3612 N.ar    1  UNL1       -0.2453
     16 C          66.5188   94.6600   12.4430 C.ar    1  UNL1        0.0858
     17 C          66.1472   95.9821   11.8397 C.ar    1  UNL1        0.0530
     18 S          66.5114   95.9466   10.3850 S.2     1  UNL1       -0.0705
     19 C          67.3074   94.9284    7.5194 C.3     1  UNL1        0.0069
     20 C          67.6120   94.1355    8.7558 C.3     1  UNL1        0.0465
     21 C          68.4203   92.8757    8.6587 C.3     1  UNL1        0.0069
     22 C          63.9951   89.5020   14.9510 C.3     1  UNL1        0.0270
     23 C          63.4175   90.0384   16.2272 C.3     1  UNL1        0.0022
     24 C          64.5040   88.0922   14.8923 C.3     1  UNL1        0.0022
     25 C          62.3869   87.0244   10.4253 C.3     1  UNL1        0.0390
     26 C          61.7893   85.6852   10.7405 C.3     1  UNL1        0.0941
     27 N          62.5810   84.6744   11.5162 N.3     1  UNL1       -0.1988
     28 N          63.2317   85.0642   12.8103 N.am    1  UNL1       -0.2120
     29 C          64.5372   84.4431   13.2103 C.2     1  UNL1        0.4155
     30 O          65.1920   83.4324   12.3161 O.2     1  UNL1       -0.2251
     31 H          62.8019   85.7276   13.3971 H       1  UNL1        0.1726
     32 O          65.1879   84.8329   14.5044 O.3     1  UNL1       -0.4282
     33 C          64.5752   84.4140   15.8079 C.3     1  UNL1        0.2447
     34 C          63.3934   85.1584   16.3547 C.ar    1  UNL1        0.0714
     35 C          61.9572   84.9202   15.9934 C.ar    1  UNL1        0.1053
     36 N          61.1163   85.8863   16.7743 N.ar    1  UNL1       -0.2350
     37 C          62.0329   86.7216   17.6182 C.ar    1  UNL1        0.1343
     38 S          63.4402   86.2717   17.3589 S.2     1  UNL1       -0.0652
     39 C          62.7221   83.2740   10.9977 C.3     1  UNL1        0.1182
     40 C          62.4771   82.1084   11.9096 C.ar    1  UNL1       -0.0045
     41 C          62.9248   80.7345   11.5074 C.ar    1  UNL1       -0.0029
     42 C          62.6798   79.5690   12.4193 C.ar    1  UNL1       -0.0003
     43 C          61.9873   79.7774   13.7334 C.ar    1  UNL1       -0.0000
     44 C          61.5397   81.1514   14.1356 C.ar    1  UNL1       -0.0003
     45 C          61.7846   82.3169   13.2237 C.ar    1  UNL1       -0.0029
     46 C          60.7670   89.0453   10.6307 C.3     1  UNL1        0.0459
     47 C          60.1293   88.6682    9.3264 C.ar    1  UNL1       -0.0205
     48 C          59.5394   87.3008    9.1477 C.ar    1  UNL1       -0.0042
     49 C          58.9017   86.9237    7.8434 C.ar    1  UNL1       -0.0003
     50 C          58.8540   87.9140    6.7179 C.ar    1  UNL1       -0.0000
     51 C          59.4440   89.2815    6.8966 C.ar    1  UNL1       -0.0003
     52 C          60.0816   89.6586    8.2008 C.ar    1  UNL1       -0.0042
@<TRIPOS>BOND
     1    19    20    1
     2    20    21    1
     3    20    14    1
     4    14    15   ar
     5    15    16   ar
     6    16    13    1
     7    13     7    1
     8     7     8    1
     9     7     9   am
    10     9    10    2
    11     9    11   am
    12     6    11    1
    13     6     2    1
    14     2     3    2
    15     2     4   am
    16     4     1    1
    17     1    25    1
    18    25    26    1
    19    26    27    1
    20    27    39    1
    21    39    40    1
    22    40    41   ar
    23    41    42   ar
    24    42    43   ar
    25    43    44   ar
    26    44    45   ar
    27    27    28    1
    28    28    29   am
    29    29    30    2
    30    29    32    1
    31    32    33    1
    32    33    34    1
    33    34    35   ar
    34    35    36   ar
    35    36    37   ar
    36    37    38   ar
    37     1    46    1
    38    46    47    1
    39    47    48   ar
    40    48    49   ar
    41    49    50   ar
    42    50    51   ar
    43    51    52   ar
    44     6    22    1
    45    22    23    1
    46    22    24    1
    47    16    17   ar
    48    17    18   ar
    49    18    14   ar
    50    45    40   ar
    51    38    34   ar
    52    52    47   ar
    53    11    12    1
    54     4     5    1
    55    28    31    1
@<TRIPOS>MOLECULE
*****
 52 55 0 0 0
SMALL
GASTEIGER

@<TRIPOS>ATOM
      1 C          64.5344   90.5817   14.6807 C.3     1  UNL1        0.0774
      2 C          63.9140   88.0593   14.7356 C.2     1  UNL1        0.2403
      3 O          63.8496   88.0425   13.2371 O.2     1  UNL1       -0.2733
      4 N          64.2563   89.3289   15.4574 N.am    1  UNL1       -0.3043
      5 H          64.2986   89.3399   16.4410 H       1  UNL1        0.1494
      6 C          63.6360   86.8066   15.5123 C.3     1  UNL1        0.1496
      7 N          62.6895   83.1351   14.3399 N.am    1  UNL1       -0.2567
      8 C          61.5867   82.1351   14.5235 C.3     1  UNL1        0.1168
      9 C          62.6113   84.4708   15.0179 C.2     1  UNL1        0.3046
     10 O          61.4303   84.8066   15.8795 O.2     1  UNL1       -0.2526
     11 N          63.7142   85.4708   14.8343 N.am    1  UNL1       -0.2824
     12 H          64.4894   85.2504   14.2688 H       1  UNL1        0.1514
     13 C          63.8706   82.7994   13.4783 C.3     1  UNL1        0.1413
     14 C          63.3871   84.2548    9.9127 C.ar    1  UNL1        0.0875
     15 N          63.1281   84.2931   11.3896 N.ar    1  UNL1       -0.2453
     16 C          63.8548   83.1411   12.0178 C.ar    1  UNL1        0.0858
     17 C          64.5631   82.3907   10.9290 C.ar    1  UNL1        0.0530
     18 S          64.2741   83.0790    9.6280 S.2     1  UNL1       -0.0705
     19 C          62.3636   86.5716    9.3341 C.3     1  UNL1        0.0069
     20 C          62.8531   85.2223    8.8984 C.3     1  UNL1        0.0465
     21 C          62.8085   84.8406    7.4485 C.3     1  UNL1        0.0069
     22 C          63.2797   86.8895   16.9670 C.3     1  UNL1        0.0270
     23 C          63.4678   85.6950   17.8545 C.3     1  UNL1        0.0022
     24 C          62.7354   88.1670   17.5341 C.3     1  UNL1        0.0022
     25 C          64.2428   90.6327   13.2102 C.3     1  UNL1        0.0390
     26 C          64.1368   91.9561   12.5122 C.3     1  UNL1        0.0941
     27 N          64.5204   92.0746   11.0669 N.3     1  UNL1       -0.1988
     28 N          63.4806   91.9077    9.9988 N.am    1  UNL1       -0.2120
     29 C          62.7554   90.6024    9.8554 C.2     1  UNL1        0.4155
     30 O          63.0701   89.4641   10.7802 O.2     1  UNL1       -0.2251
     31 H          63.2740   92.6548    9.3918 H       1  UNL1        0.1726
     32 O          61.7155   90.4356    8.7873 O.3     1  UNL1       -0.4282
     33 C          60.5096   89.5806    9.0417 C.3     1  UNL1        0.2447
     34 C          59.9581   89.4561   10.4311 C.ar    1  UNL1        0.0714
     35 C          59.8880   88.1963   11.2422 C.ar    1  UNL1        0.1053
     36 N          59.2664   88.5310   12.5657 N.ar    1  UNL1       -0.2350
     37 C          58.9523   89.9978   12.5725 C.ar    1  UNL1        0.1343
     38 S          59.3797   90.5694   11.2532 S.2     1  UNL1       -0.0652
     39 C          65.9439   92.3599   10.6897 C.3     1  UNL1        0.1182
     40 C          66.3611   93.7573   10.3384 C.ar    1  UNL1       -0.0045
     41 C          67.1696   94.0098    9.1005 C.ar    1  UNL1       -0.0029
     42 C          67.5867   95.4072    8.7493 C.ar    1  UNL1       -0.0003
     43 C          67.1953   96.5520    9.6359 C.ar    1  UNL1       -0.0000
     44 C          66.3868   96.2995   10.8739 C.ar    1  UNL1       -0.0003
     45 C          65.9697   94.9021   11.2251 C.ar    1  UNL1       -0.0029
     46 C          65.1040   91.7835   15.3746 C.3     1  UNL1        0.0459
     47 C          66.5542   92.1284   15.2080 C.ar    1  UNL1       -0.0205
     48 C          67.2411   92.9923   16.2237 C.ar    1  UNL1       -0.0042
     49 C          68.6914   93.3372   16.0572 C.ar    1  UNL1       -0.0003
     50 C          69.4548   92.8181   14.8749 C.ar    1  UNL1       -0.0000
     51 C          68.7679   91.9541   13.8591 C.ar    1  UNL1       -0.0003
     52 C          67.3176   91.6092   14.0257 C.ar    1  UNL1       -0.0042
@<TRIPOS>BOND
     1    19    20    1
     2    20    21    1
     3    20    14    1
     4    14    15   ar
     5    15    16   ar
     6    16    13    1
     7    13     7    1
     8     7     8    1
     9     7     9   am
    10     9    10    2
    11     9    11   am
    12     6    11    1
    13     6     2    1
    14     2     3    2
    15     2     4   am
    16     4     1    1
    17     1    25    1
    18    25    26    1
    19    26    27    1
    20    27    39    1
    21    39    40    1
    22    40    41   ar
    23    41    42   ar
    24    42    43   ar
    25    43    44   ar
    26    44    45   ar
    27    27    28    1
    28    28    29   am
    29    29    30    2
    30    29    32    1
    31    32    33    1
    32    33    34    1
    33    34    35   ar
    34    35    36   ar
    35    36    37   ar
    36    37    38   ar
    37     1    46    1
    38    46    47    1
    39    47    48   ar
    40    48    49   ar
    41    49    50   ar
    42    50    51   ar
    43    51    52   ar
    44     6    22    1
    45    22    23    1
    46    22    24    1
    47    16    17   ar
    48    17    18   ar
    49    18    14   ar
    50    45    40   ar
    51    38    34   ar
    52    52    47   ar
    53    11    12    1
    54     4     5    1
    55    28    31    1
@<TRIPOS>MOLECULE
*****
 52 55 0 0 0
SMALL
GASTEIGER

@<TRIPOS>ATOM
      1 C          59.7654   87.6738    8.2285 C.3     1  UNL1        0.0774
      2 C          60.8771   89.0762   10.1120 C.2     1  UNL1        0.2403
      3 O          62.1934   88.9920    9.3979 O.2     1  UNL1       -0.2733
      4 N          59.6630   88.4170    9.5274 N.am    1  UNL1       -0.3043
      5 H          58.7990   88.4723    9.9961 H       1  UNL1        0.1494
      6 C          60.7747   89.8195   11.4109 C.3     1  UNL1        0.1496
      7 N          64.2742   91.5015   12.2321 N.am    1  UNL1       -0.2567
      8 C          65.2845   92.3952   11.5759 C.3     1  UNL1        0.1168
      9 C          63.0296   91.1073   11.4934 C.2     1  UNL1        0.3046
     10 O          62.7953   91.6069   10.0986 O.2     1  UNL1       -0.2526
     11 N          62.0193   90.2136   12.1496 N.am    1  UNL1       -0.2824
     12 H          62.1730   89.8857   13.0651 H       1  UNL1        0.1514
     13 C          64.5084   91.0019   13.6269 C.3     1  UNL1        0.1413
     14 C          67.6185   92.6333   15.2796 C.ar    1  UNL1        0.0875
     15 N          66.9501   91.9779   14.1076 N.ar    1  UNL1       -0.2453
     16 C          65.5364   91.6621   14.4972 C.ar    1  UNL1        0.0858
     17 C          65.3312   92.1224   15.9101 C.ar    1  UNL1        0.0530
     18 S          66.6180   92.7227   16.3936 S.2     1  UNL1       -0.0705
     19 C          69.4135   94.2522   16.2321 C.3     1  UNL1        0.0069
     20 C          69.0383   93.1149   15.3290 C.3     1  UNL1        0.0465
     21 C          70.0828   92.4591   14.4752 C.3     1  UNL1        0.0069
     22 C          59.4277   90.1686   11.9711 C.3     1  UNL1        0.0270
     23 C          58.7731   91.4654   11.5971 C.3     1  UNL1        0.0022
     24 C          58.7354   89.2209   12.9051 C.3     1  UNL1        0.0022
     25 C          60.8075   86.6091    8.0538 C.3     1  UNL1        0.0390
     26 C          61.0388   85.6007    9.1398 C.3     1  UNL1        0.0941
     27 N          62.3928   85.4786    9.7739 N.3     1  UNL1       -0.1988
     28 N          62.9234   86.5907   10.6293 N.am    1  UNL1       -0.2120
     29 C          62.7720   86.5276   12.1204 C.2     1  UNL1        0.4155
     30 O          62.0901   85.3525   12.7560 O.2     1  UNL1       -0.2251
     31 H          63.3710   87.3619   10.2121 H       1  UNL1        0.1726
     32 O          63.3026   87.6397   12.9758 O.3     1  UNL1       -0.4282
     33 C          64.2012   87.3300   14.1362 C.3     1  UNL1        0.2447
     34 C          63.6107   86.9447   15.4601 C.ar    1  UNL1        0.0714
     35 C          63.3143   85.5482   15.9204 C.ar    1  UNL1        0.1053
     36 N          62.7334   85.6285   17.3010 N.ar    1  UNL1       -0.2350
     37 C          62.6707   87.0748   17.6940 C.ar    1  UNL1        0.1343
     38 S          63.2130   87.8882   16.5563 S.2     1  UNL1       -0.0652
     39 C          63.2160   84.2444    9.5526 C.3     1  UNL1        0.1182
     40 C          63.4624   83.2939   10.6866 C.ar    1  UNL1       -0.0045
     41 C          62.4727   82.2062   10.9822 C.ar    1  UNL1       -0.0029
     42 C          62.7191   81.2558   12.1161 C.ar    1  UNL1       -0.0003
     43 C          63.9553   81.3930   12.9545 C.ar    1  UNL1       -0.0000
     44 C          64.9451   82.4806   12.6590 C.ar    1  UNL1       -0.0003
     45 C          64.6987   83.4311   11.5251 C.ar    1  UNL1       -0.0029
     46 C          58.8257   87.9951    7.1044 C.3     1  UNL1        0.0459
     47 C          58.9740   89.2816    6.3474 C.ar    1  UNL1       -0.0205
     48 C          60.3370   89.7647    5.9493 C.ar    1  UNL1       -0.0042
     49 C          60.4853   91.0512    5.1923 C.ar    1  UNL1       -0.0003
     50 C          59.2706   91.8546    4.8336 C.ar    1  UNL1       -0.0000
     51 C          57.9074   91.3716    5.2318 C.ar    1  UNL1       -0.0003
     52 C          57.7591   90.0851    5.9887 C.ar    1  UNL1       -0.0042
@<TRIPOS>BOND
     1    19    20    1
     2    20    21    1
     3    20    14    1
     4    14    15   ar
     5    15    16   ar
     6    16    13    1
     7    13     7    1
     8     7     8    1
     9     7     9   am
    10     9    10    2
    11     9    11   am
    12     6    11    1
    13     6     2    1
    14     2     3    2
    15     2     4   am
    16     4     1    1
    17     1    25    1
    18    25    26    1
    19    26    27    1
    20    27    39    1
    21    39    40    1
    22    40    41   ar
    23    41    42   ar
    24    42    43   ar
    25    43    44   ar
    26    44    45   ar
    27    27    28    1
    28    28    29   am
    29    29    30    2
    30    29    32    1
    31    32    33    1
    32    33    34    1
    33    34    35   ar
    34    35    36   ar
    35    36    37   ar
    36    37    38   ar
    37     1    46    1
    38    46    47    1
    39    47    48   ar
    40    48    49   ar
    41    49    50   ar
    42    50    51   ar
    43    51    52   ar
    44     6    22    1
    45    22    23    1
    46    22    24    1
    47    16    17   ar
    48    17    18   ar
    49    18    14   ar
    50    45    40   ar
    51    38    34   ar
    52    52    47   ar
    53    11    12    1
    54     4     5    1
    55    28    31    1
@<TRIPOS>MOLECULE
*****
 52 55 0 0 0
SMALL
GASTEIGER

@<TRIPOS>ATOM
      1 C          63.5546   89.4016   13.2509 C.3     1  UNL1        0.0774
      2 C          61.7783   88.6216   11.5227 C.2     1  UNL1        0.2403
      3 O          60.7412   89.4589   12.2107 O.2     1  UNL1       -0.2733
      4 N          63.1850   88.5930   12.0428 N.am    1  UNL1       -0.3043
      5 H          63.8657   88.0434   11.5912 H       1  UNL1        0.1494
      6 C          61.4087   87.8130   10.3146 C.3     1  UNL1        0.1496
      7 N          62.8767   84.7919    8.2008 N.am    1  UNL1       -0.2567
      8 C          62.7037   84.1636    6.8497 C.3     1  UNL1        0.1168
      9 C          62.0563   85.9883    8.5822 C.2     1  UNL1        0.3046
     10 O          61.0628   86.5565    7.6125 O.2     1  UNL1       -0.2526
     11 N          62.2292   86.6165    9.9332 N.am    1  UNL1       -0.2824
     12 H          62.8812   86.2436   10.5697 H       1  UNL1        0.1514
     13 C          63.8700   84.2237    9.1705 C.3     1  UNL1        0.1413
     14 C          62.6217   82.2533   12.2729 C.ar    1  UNL1        0.0875
     15 N          63.0094   82.3086   10.8249 N.ar    1  UNL1       -0.2453
     16 C          63.4100   83.7185   10.5059 C.ar    1  UNL1        0.0858
     17 C          63.2699   84.5345   11.7567 C.ar    1  UNL1        0.0530
     18 S          62.7827   83.6290   12.8488 S.2     1  UNL1       -0.0705
     19 C          61.2115   81.1788   14.1721 C.3     1  UNL1        0.0069
     20 C          62.1549   81.0360   13.0147 C.3     1  UNL1        0.0465
     21 C          62.6316   79.6758   12.5992 C.3     1  UNL1        0.0069
     22 C          60.2188   88.2008    9.4878 C.3     1  UNL1        0.0270
     23 C          59.0323   87.2867    9.4061 C.3     1  UNL1        0.0022
     24 C          60.2153   89.5026    8.7428 C.3     1  UNL1        0.0022
     25 C          62.9964   90.7825   13.4286 C.3     1  UNL1        0.0390
     26 C          63.9143   91.9288   13.7342 C.3     1  UNL1        0.0941
     27 N          65.1450   92.1459   12.9045 N.3     1  UNL1       -0.1988
     28 N          65.1209   93.1263   11.7695 N.am    1  UNL1       -0.2120
     29 C          65.7504   94.4781   11.9325 C.2     1  UNL1        0.4155
     30 O          66.4038   94.8495   13.2306 O.2     1  UNL1       -0.2251
     31 H          64.6920   92.8825   10.9175 H       1  UNL1        0.1726
     32 O          65.7263   95.4584   10.7975 O.3     1  UNL1       -0.4282
     33 C          66.9078   95.5732    9.8804 C.3     1  UNL1        0.2447
     34 C          67.6086   94.3364    9.4017 C.ar    1  UNL1        0.0714
     35 C          68.0105   94.0425    7.9868 C.ar    1  UNL1        0.1053
     36 N          68.6809   92.7008    7.9645 N.ar    1  UNL1       -0.2350
     37 C          68.6932   92.1654    9.3656 C.ar    1  UNL1        0.1343
     38 S          68.0305   93.1763   10.2539 S.2     1  UNL1       -0.0652
     39 C          66.3997   91.3828   13.2100 C.3     1  UNL1        0.1182
     40 C          67.3806   91.9212   14.2090 C.ar    1  UNL1       -0.0045
     41 C          68.8270   92.0639   13.8381 C.ar    1  UNL1       -0.0029
     42 C          69.8078   92.6023   14.8371 C.ar    1  UNL1       -0.0003
     43 C          69.3423   92.9980   16.2070 C.ar    1  UNL1       -0.0000
     44 C          67.8960   92.8552   16.5779 C.ar    1  UNL1       -0.0003
     45 C          66.9151   92.3169   15.5790 C.ar    1  UNL1       -0.0029
     46 C          64.4823   88.8293   14.2814 C.3     1  UNL1        0.0459
     47 C          63.9546   87.8944   15.3290 C.ar    1  UNL1       -0.0205
     48 C          63.2623   88.4413   16.5421 C.ar    1  UNL1       -0.0042
     49 C          62.7346   87.5064   17.5898 C.ar    1  UNL1       -0.0003
     50 C          62.8992   86.0247   17.4243 C.ar    1  UNL1       -0.0000
     51 C          63.5916   85.4778   16.2112 C.ar    1  UNL1       -0.0003
     52 C          64.1193   86.4126   15.1636 C.ar    1  UNL1       -0.0042
@<TRIPOS>BOND
     1    19    20    1
     2    20    21    1
     3    20    14    1
     4    14    15   ar
     5    15    16   ar
     6    16    13    1
     7    13     7    1
     8     7     8    1
     9     7     9   am
    10     9    10    2
    11     9    11   am
    12     6    11    1
    13     6     2    1
    14     2     3    2
    15     2     4   am
    16     4     1    1
    17     1    25    1
    18    25    26    1
    19    26    27    1
    20    27    39    1
    21    39    40    1
    22    40    41   ar
    23    41    42   ar
    24    42    43   ar
    25    43    44   ar
    26    44    45   ar
    27    27    28    1
    28    28    29   am
    29    29    30    2
    30    29    32    1
    31    32    33    1
    32    33    34    1
    33    34    35   ar
    34    35    36   ar
    35    36    37   ar
    36    37    38   ar
    37     1    46    1
    38    46    47    1
    39    47    48   ar
    40    48    49   ar
    41    49    50   ar
    42    50    51   ar
    43    51    52   ar
    44     6    22    1
    45    22    23    1
    46    22    24    1
    47    16    17   ar
    48    17    18   ar
    49    18    14   ar
    50    45    40   ar
    51    38    34   ar
    52    52    47   ar
    53    11    12    1
    54     4     5    1
    55    28    31    1
