@<TRIPOS>MOLECULE
*****
 41 46 0 0 0
SMALL
GASTEIGER

@<TRIPOS>ATOM
      1 C          61.8412   89.9736   11.0954 C.3     1  UNL1        0.0758
      2 C          62.2734   88.8588   10.1894 C.3     1  UNL1        0.0370
      3 C          61.4512   88.5107    8.9841 C.3     1  UNL1        0.0741
      4 N          60.1972   89.2771    8.6847 N.3     1  UNL1       -0.2688
      5 C          59.7651   90.3918    9.5906 C.3     1  UNL1        0.0741
      6 C          60.5871   90.7400   10.7960 C.3     1  UNL1        0.0370
      7 O          64.3099   91.6512   10.7939 O.2     1  UNL1       -0.2526
      8 C          63.8976   91.1606   12.1500 C.2     1  UNL1        0.3044
      9 N          62.6633   90.3218   12.3008 N.am    1  UNL1       -0.2903
     10 N          64.7197   91.5088   13.3555 N.am    1  UNL1       -0.2549
     11 C          64.3074   91.0182   14.7116 C.3     1  UNL1        0.1200
     12 C          65.1294   91.3664   15.9171 C.3     1  UNL1        0.1273
     13 N          66.3638   92.2052   15.7662 N.ar    1  UNL1       -0.3260
     14 C          67.3655   92.7054   16.7644 C.ar    1  UNL1        0.0758
     15 C          68.3969   93.5052   16.0251 C.ar    1  UNL1        0.0199
     16 C          68.0326   93.4993   14.5700 C.ar    1  UNL1        0.0163
     17 C          66.7760   92.6959   14.4100 C.ar    1  UNL1        0.0597
     18 C          65.9540   92.3477   13.2046 C.3     1  UNL1        0.1376
     19 H          62.3927   89.9998   13.1910 H       1  UNL1        0.1509
     20 C          66.3663   92.8383   11.8484 C.ar    1  UNL1        0.0014
     21 C          65.7779   94.1034   11.2977 C.ar    1  UNL1       -0.0023
     22 C          66.1902   94.5940    9.9415 C.ar    1  UNL1       -0.0003
     23 C          67.1909   93.8195    9.1359 C.ar    1  UNL1       -0.0000
     24 C          67.7792   92.5543    9.6867 C.ar    1  UNL1       -0.0003
     25 C          67.3670   92.0637   11.0429 C.ar    1  UNL1       -0.0023
     26 C          59.3750   88.9289    7.4792 C.3     1  UNL1        0.1007
     27 C          59.2404   89.9116    6.3540 C.ar    1  UNL1        0.0129
     28 C          57.9627   90.5359    5.8766 C.ar    1  UNL1        0.0176
     29 C          58.2924   91.4526    4.7361 C.ar    1  UNL1        0.0799
     30 N          59.7739   91.3951    4.5086 N.ar    1  UNL1       -0.3038
     31 C          60.3598   90.4427    5.5085 C.ar    1  UNL1        0.0772
     32 C          60.5359   92.1563    3.4645 C.ar    1  UNL1        0.0640
     33 C          62.0121   91.9416    3.3077 C.ar    1  UNL1        0.0175
     34 C          62.7740   92.7028    2.2636 C.ar    1  UNL1        0.0053
     35 C          62.0596   93.6786    1.3763 C.ar    1  UNL1        0.0715
     36 C          60.5834   93.8933    1.5332 C.ar    1  UNL1        0.0053
     37 C          59.8215   93.1321    2.5772 C.ar    1  UNL1        0.0175
     38 C          62.8215   94.4398    0.3323 C.3     1  UNL1        0.4186
     39 F          63.5834   95.2010   -0.7118 F       1  UNL1       -0.1659
     40 F          63.2048   95.4642    1.3588 F       1  UNL1       -0.1659
     41 F          62.4382   93.4154   -0.6942 F       1  UNL1       -0.1659
@<TRIPOS>BOND
     1     7     8    2
     2     8     9   am
     3     9     1    1
     4     1     2    1
     5     2     3    1
     6     3     4    1
     7     4    26    1
     8    26    27    1
     9    27    28   ar
    10    28    29   ar
    11    29    30   ar
    12    30    32    1
    13    32    33   ar
    14    33    34   ar
    15    34    35   ar
    16    35    38    1
    17    38    39    1
    18    38    40    1
    19    38    41    1
    20    35    36   ar
    21    36    37   ar
    22    30    31   ar
    23     4     5    1
    24     5     6    1
    25     8    10   am
    26    10    11    1
    27    11    12    1
    28    12    13    1
    29    13    14   ar
    30    14    15   ar
    31    15    16   ar
    32    16    17   ar
    33    17    18    1
    34    18    20    1
    35    20    21   ar
    36    21    22   ar
    37    22    23   ar
    38    23    24   ar
    39    24    25   ar
    40     6     1    1
    41    18    10    1
    42    25    20   ar
    43    31    27   ar
    44    17    13   ar
    45    37    32   ar
    46     9    19    1
@<TRIPOS>MOLECULE
*****
 41 46 0 0 0
SMALL
GASTEIGER

@<TRIPOS>ATOM
      1 C          60.8037   92.3317    3.3745 C.3     1  UNL1        0.0758
      2 C          61.5915   91.2583    4.0653 C.3     1  UNL1        0.0370
      3 C          60.9416   90.4117    5.1193 C.3     1  UNL1        0.0741
      4 N          59.5041   90.6384    5.4825 N.3     1  UNL1       -0.2688
      5 C          58.7163   91.7118    4.7917 C.3     1  UNL1        0.0741
      6 C          59.3661   92.5585    3.7377 C.3     1  UNL1        0.0370
      7 O          59.3182   92.9898    0.8526 O.2     1  UNL1       -0.2526
      8 C          60.7107   93.5074    1.0595 C.2     1  UNL1        0.3044
      9 N          61.4535   93.1784    2.3205 N.am    1  UNL1       -0.2903
     10 N          61.3606   94.3541    0.0055 N.am    1  UNL1       -0.2549
     11 C          62.7530   94.8717    0.2125 C.3     1  UNL1        0.1200
     12 C          63.4029   95.7184   -0.8416 C.3     1  UNL1        0.1273
     13 N          62.6601   96.0474   -2.1025 N.ar    1  UNL1       -0.3260
     14 C          63.0394   96.8530   -3.3097 C.ar    1  UNL1        0.0758
     15 C          61.8813   96.8332   -4.2627 C.ar    1  UNL1        0.0199
     16 C          60.7862   96.0154   -3.6445 C.ar    1  UNL1        0.0163
     17 C          61.2676   95.5298   -2.3094 C.ar    1  UNL1        0.0597
     18 C          60.6178   94.6831   -1.2554 C.3     1  UNL1        0.1376
     19 H          62.3675   93.5181    2.4563 H       1  UNL1        0.1509
     20 C          59.2252   94.1655   -1.4624 C.ar    1  UNL1        0.0014
     21 C          59.0081   92.8536   -2.1564 C.ar    1  UNL1       -0.0023
     22 C          57.6155   92.3360   -2.3633 C.ar    1  UNL1       -0.0003
     23 C          56.4400   93.1303   -1.8762 C.ar    1  UNL1       -0.0000
     24 C          56.6572   94.4423   -1.1821 C.ar    1  UNL1       -0.0003
     25 C          58.0497   94.9598   -0.9752 C.ar    1  UNL1       -0.0023
     26 C          58.8543   89.7918    6.5365 C.3     1  UNL1        0.1007
     27 C          59.6653   89.2720    7.6863 C.ar    1  UNL1        0.0129
     28 C          60.0886   90.0566    8.8927 C.ar    1  UNL1        0.0176
     29 C          60.8803   89.1459    9.7836 C.ar    1  UNL1        0.0799
     30 N          60.9464   87.7985    9.1278 N.ar    1  UNL1       -0.3038
     31 C          60.1955   87.8764    7.8317 C.ar    1  UNL1        0.0772
     32 C          61.6414   86.5859    9.6726 C.ar    1  UNL1        0.0640
     33 C          62.4255   85.6953    8.7551 C.ar    1  UNL1        0.0175
     34 C          63.1205   84.4827    9.2999 C.ar    1  UNL1        0.0053
     35 C          63.0314   84.1609   10.7622 C.ar    1  UNL1        0.0715
     36 C          62.2473   85.0516   11.6798 C.ar    1  UNL1        0.0053
     37 C          61.5523   86.2641   11.1350 C.ar    1  UNL1        0.0175
     38 C          63.7263   82.9484   11.3070 C.3     1  UNL1        0.4186
     39 F          64.4213   81.7359   11.8519 F       1  UNL1       -0.1659
     40 F          64.9753   83.3335   10.5710 F       1  UNL1       -0.1659
     41 F          62.4774   82.5632   12.0431 F       1  UNL1       -0.1659
@<TRIPOS>BOND
     1     7     8    2
     2     8     9   am
     3     9     1    1
     4     1     2    1
     5     2     3    1
     6     3     4    1
     7     4    26    1
     8    26    27    1
     9    27    28   ar
    10    28    29   ar
    11    29    30   ar
    12    30    32    1
    13    32    33   ar
    14    33    34   ar
    15    34    35   ar
    16    35    38    1
    17    38    39    1
    18    38    40    1
    19    38    41    1
    20    35    36   ar
    21    36    37   ar
    22    30    31   ar
    23     4     5    1
    24     5     6    1
    25     8    10   am
    26    10    11    1
    27    11    12    1
    28    12    13    1
    29    13    14   ar
    30    14    15   ar
    31    15    16   ar
    32    16    17   ar
    33    17    18    1
    34    18    20    1
    35    20    21   ar
    36    21    22   ar
    37    22    23   ar
    38    23    24   ar
    39    24    25   ar
    40     6     1    1
    41    18    10    1
    42    25    20   ar
    43    31    27   ar
    44    17    13   ar
    45    37    32   ar
    46     9    19    1
@<TRIPOS>MOLECULE
*****
 41 46 0 0 0
SMALL
GASTEIGER

@<TRIPOS>ATOM
      1 C          60.7922   92.3033    3.3691 C.3     1  UNL1        0.0758
      2 C          59.3691   92.6353    3.7081 C.3     1  UNL1        0.0370
      3 C          58.6606   91.8791    4.7926 C.3     1  UNL1        0.0741
      4 N          59.3749   90.7911    5.5380 N.3     1  UNL1       -0.2688
      5 C          60.7979   90.4591    5.1991 C.3     1  UNL1        0.0741
      6 C          61.5065   91.2152    4.1146 C.3     1  UNL1        0.0370
      7 O          59.3310   93.0438    0.8558 O.2     1  UNL1       -0.2526
      8 C          60.7702   93.4296    1.0280 C.2     1  UNL1        0.3044
      9 N          61.5008   93.0594    2.2846 N.am    1  UNL1       -0.2903
     10 N          61.4789   94.1858   -0.0565 N.am    1  UNL1       -0.2549
     11 C          62.9181   94.5717    0.1156 C.3     1  UNL1        0.1200
     12 C          63.6268   95.3278   -0.9688 C.3     1  UNL1        0.1273
     13 N          62.8962   95.6980   -2.2255 N.ar    1  UNL1       -0.3260
     14 C          63.3290   96.4358   -3.4577 C.ar    1  UNL1        0.0758
     15 C          62.1571   96.5058   -4.3915 C.ar    1  UNL1        0.0199
     16 C          61.0002   95.8114   -3.7363 C.ar    1  UNL1        0.0163
     17 C          61.4570   95.3121   -2.3976 C.ar    1  UNL1        0.0597
     18 C          60.7483   94.5560   -1.3132 C.3     1  UNL1        0.1376
     19 H          62.4455   93.3127    2.3976 H       1  UNL1        0.1509
     20 C          59.3091   94.1701   -1.4853 C.ar    1  UNL1        0.0014
     21 C          58.9541   92.8874   -2.1772 C.ar    1  UNL1       -0.0023
     22 C          57.5148   92.5016   -2.3493 C.ar    1  UNL1       -0.0003
     23 C          56.4305   93.3983   -1.8296 C.ar    1  UNL1       -0.0000
     24 C          56.7856   94.6810   -1.1376 C.ar    1  UNL1       -0.0003
     25 C          58.2247   95.0669   -0.9655 C.ar    1  UNL1       -0.0023
     26 C          58.6663   90.0349    6.6225 C.3     1  UNL1        0.1007
     27 C          59.3749   88.9348    7.3558 C.ar    1  UNL1        0.0129
     28 C          59.4268   87.4928    6.9459 C.ar    1  UNL1        0.0176
     29 C          60.2400   86.7503    7.9643 C.ar    1  UNL1        0.0799
     30 N          60.6908   87.7334    9.0037 N.ar    1  UNL1       -0.3038
     31 C          60.1561   89.0835    8.6276 C.ar    1  UNL1        0.0772
     32 C          61.5290   87.4213   10.2079 C.ar    1  UNL1        0.0640
     33 C          62.2451   88.5241   10.9296 C.ar    1  UNL1        0.0175
     34 C          63.0834   88.2120   12.1338 C.ar    1  UNL1        0.0053
     35 C          63.2055   86.7969   12.6162 C.ar    1  UNL1        0.0715
     36 C          62.4893   85.6941   11.8944 C.ar    1  UNL1        0.0053
     37 C          61.6511   86.0062   10.6903 C.ar    1  UNL1        0.0175
     38 C          64.0437   86.4847   13.8203 C.3     1  UNL1        0.4186
     39 F          64.8819   86.1726   15.0244 F       1  UNL1       -0.1659
     40 F          64.2600   87.9512   14.0499 F       1  UNL1       -0.1659
     41 F          63.8273   85.0183   13.5907 F       1  UNL1       -0.1659
@<TRIPOS>BOND
     1     7     8    2
     2     8     9   am
     3     9     1    1
     4     1     2    1
     5     2     3    1
     6     3     4    1
     7     4    26    1
     8    26    27    1
     9    27    28   ar
    10    28    29   ar
    11    29    30   ar
    12    30    32    1
    13    32    33   ar
    14    33    34   ar
    15    34    35   ar
    16    35    38    1
    17    38    39    1
    18    38    40    1
    19    38    41    1
    20    35    36   ar
    21    36    37   ar
    22    30    31   ar
    23     4     5    1
    24     5     6    1
    25     8    10   am
    26    10    11    1
    27    11    12    1
    28    12    13    1
    29    13    14   ar
    30    14    15   ar
    31    15    16   ar
    32    16    17   ar
    33    17    18    1
    34    18    20    1
    35    20    21   ar
    36    21    22   ar
    37    22    23   ar
    38    23    24   ar
    39    24    25   ar
    40     6     1    1
    41    18    10    1
    42    25    20   ar
    43    31    27   ar
    44    17    13   ar
    45    37    32   ar
    46     9    19    1
@<TRIPOS>MOLECULE
*****
 41 46 0 0 0
SMALL
GASTEIGER

@<TRIPOS>ATOM
      1 C          60.7101   92.3486    3.3477 C.3     1  UNL1        0.0758
      2 C          59.2752   92.5785    3.7197 C.3     1  UNL1        0.0370
      3 C          58.6290   91.7307    4.7750 C.3     1  UNL1        0.0741
      4 N          59.4176   90.6532    5.4584 N.3     1  UNL1       -0.2688
      5 C          60.8524   90.4233    5.0864 C.3     1  UNL1        0.0741
      6 C          61.4987   91.2710    4.0311 C.3     1  UNL1        0.0370
      7 O          59.2349   92.9687    0.8102 O.2     1  UNL1       -0.2526
      8 C          60.6188   93.5063    1.0237 C.2     1  UNL1        0.3044
      9 N          61.3564   93.1964    2.2924 N.am    1  UNL1       -0.2903
     10 N          61.2651   94.3541   -0.0316 N.am    1  UNL1       -0.2549
     11 C          62.6490   94.8918    0.1818 C.3     1  UNL1        0.1200
     12 C          63.2954   95.7395   -0.8735 C.3     1  UNL1        0.1273
     13 N          62.5577   96.0495   -2.1422 N.ar    1  UNL1       -0.3260
     14 C          62.9353   96.8514   -3.3524 C.ar    1  UNL1        0.0758
     15 C          61.7846   96.8092   -4.3138 C.ar    1  UNL1        0.0199
     16 C          60.6960   95.9813   -3.6978 C.ar    1  UNL1        0.0163
     17 C          61.1738   95.5118   -2.3557 C.ar    1  UNL1        0.0597
     18 C          60.5275   94.6641   -1.3004 C.3     1  UNL1        0.1376
     19 H          62.2648   93.5493    2.4325 H       1  UNL1        0.1509
     20 C          59.1435   94.1263   -1.5138 C.ar    1  UNL1        0.0014
     21 C          57.9563   94.8861   -1.0009 C.ar    1  UNL1       -0.0023
     22 C          56.5724   94.3483   -1.2144 C.ar    1  UNL1       -0.0003
     23 C          56.3757   93.0508   -1.9408 C.ar    1  UNL1       -0.0000
     24 C          57.5630   92.2910   -2.4537 C.ar    1  UNL1       -0.0003
     25 C          58.9468   92.8287   -2.2403 C.ar    1  UNL1       -0.0023
     26 C          58.7713   89.8054    6.5137 C.3     1  UNL1        0.1007
     27 C          59.6010   89.2212    7.6184 C.ar    1  UNL1        0.0129
     28 C          59.7217   87.7642    7.9544 C.ar    1  UNL1        0.0176
     29 C          60.6509   87.6339    9.1246 C.ar    1  UNL1        0.0799
     30 N          61.1046   89.0102    9.5119 N.ar    1  UNL1       -0.3038
     31 C          60.4557   89.9912    8.5809 C.ar    1  UNL1        0.0772
     32 C          62.0425   89.3465   10.6332 C.ar    1  UNL1        0.0640
     33 C          62.5497   90.7492   10.7915 C.ar    1  UNL1        0.0175
     34 C          63.4876   91.0855   11.9128 C.ar    1  UNL1        0.0053
     35 C          63.9182   90.0191   12.8758 C.ar    1  UNL1        0.0715
     36 C          63.4109   88.6163   12.7174 C.ar    1  UNL1        0.0053
     37 C          62.4731   88.2801   11.5961 C.ar    1  UNL1        0.0175
     38 C          64.8561   90.3553   13.9971 C.3     1  UNL1        0.4186
     39 F          65.7939   90.6916   15.1184 F       1  UNL1       -0.1659
     40 F          65.0059   91.7458   13.4548 F       1  UNL1       -0.1659
     41 F          64.7063   88.9648   14.5393 F       1  UNL1       -0.1659
@<TRIPOS>BOND
     1     7     8    2
     2     8     9   am
     3     9     1    1
     4     1     2    1
     5     2     3    1
     6     3     4    1
     7     4    26    1
     8    26    27    1
     9    27    28   ar
    10    28    29   ar
    11    29    30   ar
    12    30    32    1
    13    32    33   ar
    14    33    34   ar
    15    34    35   ar
    16    35    38    1
    17    38    39    1
    18    38    40    1
    19    38    41    1
    20    35    36   ar
    21    36    37   ar
    22    30    31   ar
    23     4     5    1
    24     5     6    1
    25     8    10   am
    26    10    11    1
    27    11    12    1
    28    12    13    1
    29    13    14   ar
    30    14    15   ar
    31    15    16   ar
    32    16    17   ar
    33    17    18    1
    34    18    20    1
    35    20    21   ar
    36    21    22   ar
    37    22    23   ar
    38    23    24   ar
    39    24    25   ar
    40     6     1    1
    41    18    10    1
    42    25    20   ar
    43    31    27   ar
    44    17    13   ar
    45    37    32   ar
    46     9    19    1
@<TRIPOS>MOLECULE
*****
 41 46 0 0 0
SMALL
GASTEIGER

@<TRIPOS>ATOM
      1 C          59.0673   91.9151    3.6635 C.3     1  UNL1        0.0758
      2 C          60.4109   91.5260    4.2051 C.3     1  UNL1        0.0370
      3 C          60.5190   90.8992    5.5636 C.3     1  UNL1        0.0741
      4 N          59.2836   90.6614    6.3804 N.3     1  UNL1       -0.2688
      5 C          57.9400   91.0505    5.8388 C.3     1  UNL1        0.0741
      6 C          57.8318   91.6774    4.4803 C.3     1  UNL1        0.0370
      7 O          61.4208   93.3529    2.4832 O.2     1  UNL1       -0.2526
      8 C          60.1359   93.2609    1.7150 C.2     1  UNL1        0.3044
      9 N          58.9591   92.5420    2.3051 N.am    1  UNL1       -0.2903
     10 N          60.0276   93.8877    0.3565 N.am    1  UNL1       -0.2549
     11 C          58.7427   93.7957   -0.4118 C.3     1  UNL1        0.1200
     12 C          58.6345   94.4226   -1.7703 C.3     1  UNL1        0.1273
     13 N          59.8113   95.1414   -2.3604 N.ar    1  UNL1       -0.3260
     14 C          60.0009   95.8519   -3.6678 C.ar    1  UNL1        0.0758
     15 C          61.4032   96.3831   -3.7074 C.ar    1  UNL1        0.0199
     16 C          62.0801   96.0009   -2.4246 C.ar    1  UNL1        0.0163
     17 C          61.0963   95.2335   -1.5921 C.ar    1  UNL1        0.0597
     18 C          61.2045   94.6066   -0.2336 C.3     1  UNL1        0.1376
     19 H          58.1157   92.4816    1.8008 H       1  UNL1        0.1509
     20 C          62.4895   94.6987    0.5347 C.ar    1  UNL1        0.0014
     21 C          63.5051   93.5996    0.4320 C.ar    1  UNL1       -0.0023
     22 C          64.7901   93.6917    1.2004 C.ar    1  UNL1       -0.0003
     23 C          65.0595   94.8828    2.0713 C.ar    1  UNL1       -0.0000
     24 C          64.0438   95.9819    2.1740 C.ar    1  UNL1       -0.0003
     25 C          62.7589   95.8899    1.4057 C.ar    1  UNL1       -0.0023
     26 C          59.3917   90.0345    7.7389 C.3     1  UNL1        0.1007
     27 C          59.8233   88.6042    7.8725 C.ar    1  UNL1        0.0129
     28 C          59.3649   87.4612    7.0161 C.ar    1  UNL1        0.0176
     29 C          60.0474   86.2163    7.5004 C.ar    1  UNL1        0.0799
     30 N          60.9275   86.5899    8.6561 N.ar    1  UNL1       -0.3038
     31 C          60.7891   88.0657    8.8861 C.ar    1  UNL1        0.0772
     32 C          61.7941   85.6523    9.4436 C.ar    1  UNL1        0.0640
     33 C          61.6556   85.5773   10.9352 C.ar    1  UNL1        0.0175
     34 C          62.5221   84.6397   11.7228 C.ar    1  UNL1        0.0053
     35 C          63.5271   83.7772   11.0185 C.ar    1  UNL1        0.0715
     36 C          63.6656   83.8523    9.5268 C.ar    1  UNL1        0.0053
     37 C          62.7991   84.7898    8.7393 C.ar    1  UNL1        0.0175
     38 C          64.3937   82.8396   11.8059 C.3     1  UNL1        0.4186
     39 F          65.2602   81.9021   12.5933 F       1  UNL1       -0.1659
     40 F          64.6505   83.9220   12.8121 F       1  UNL1       -0.1659
     41 F          64.1369   81.7572   10.7997 F       1  UNL1       -0.1659
@<TRIPOS>BOND
     1     7     8    2
     2     8     9   am
     3     9     1    1
     4     1     2    1
     5     2     3    1
     6     3     4    1
     7     4    26    1
     8    26    27    1
     9    27    28   ar
    10    28    29   ar
    11    29    30   ar
    12    30    32    1
    13    32    33   ar
    14    33    34   ar
    15    34    35   ar
    16    35    38    1
    17    38    39    1
    18    38    40    1
    19    38    41    1
    20    35    36   ar
    21    36    37   ar
    22    30    31   ar
    23     4     5    1
    24     5     6    1
    25     8    10   am
    26    10    11    1
    27    11    12    1
    28    12    13    1
    29    13    14   ar
    30    14    15   ar
    31    15    16   ar
    32    16    17   ar
    33    17    18    1
    34    18    20    1
    35    20    21   ar
    36    21    22   ar
    37    22    23   ar
    38    23    24   ar
    39    24    25   ar
    40     6     1    1
    41    18    10    1
    42    25    20   ar
    43    31    27   ar
    44    17    13   ar
    45    37    32   ar
    46     9    19    1
@<TRIPOS>MOLECULE
*****
 41 46 0 0 0
SMALL
GASTEIGER

@<TRIPOS>ATOM
      1 C          59.2428   91.6440    4.1049 C.3     1  UNL1        0.0758
      2 C          60.6344   91.2332    4.4857 C.3     1  UNL1        0.0370
      3 C          60.8605   90.3934    5.7078 C.3     1  UNL1        0.0741
      4 N          59.6952   89.9642    6.5491 N.3     1  UNL1       -0.2688
      5 C          58.3037   90.3749    6.1683 C.3     1  UNL1        0.0741
      6 C          58.0775   91.2148    4.9463 C.3     1  UNL1        0.0370
      7 O          61.5716   92.9220    2.7110 O.2     1  UNL1       -0.2526
      8 C          60.1810   93.1228    2.1860 C.2     1  UNL1        0.3044
      9 N          59.0166   92.4838    2.8829 N.am    1  UNL1       -0.2903
     10 N          59.9548   93.9627    0.9638 N.am    1  UNL1       -0.2549
     11 C          58.5642   94.1635    0.4387 C.3     1  UNL1        0.1200
     12 C          58.3379   95.0034   -0.7834 C.3     1  UNL1        0.1273
     13 N          59.5024   95.6424   -1.4803 N.ar    1  UNL1       -0.3260
     14 C          59.5878   96.5165   -2.6963 C.ar    1  UNL1        0.0758
     15 C          61.0312   96.8559   -2.9227 C.ar    1  UNL1        0.0199
     16 C          61.8379   96.1916   -1.8466 C.ar    1  UNL1        0.0163
     17 C          60.8930   95.4416   -0.9552 C.ar    1  UNL1        0.0597
     18 C          61.1192   94.6017    0.2669 C.3     1  UNL1        0.1376
     19 H          58.1039   92.6156    2.5382 H       1  UNL1        0.1509
     20 C          62.5099   94.4009    0.7921 C.ar    1  UNL1        0.0014
     21 C          63.3018   93.1967    0.3766 C.ar    1  UNL1       -0.0023
     22 C          64.6925   92.9959    0.9018 C.ar    1  UNL1       -0.0003
     23 C          65.2912   93.9993    1.8424 C.ar    1  UNL1       -0.0000
     24 C          64.4991   95.2035    2.2579 C.ar    1  UNL1       -0.0003
     25 C          63.1085   95.4043    1.7328 C.ar    1  UNL1       -0.0023
     26 C          59.9214   89.1243    7.7712 C.3     1  UNL1        0.1007
     27 C          60.4469   89.7540    9.0271 C.ar    1  UNL1        0.0129
     28 C          59.6217   90.2427   10.1805 C.ar    1  UNL1        0.0176
     29 C          60.5547   90.7962   11.2164 C.ar    1  UNL1        0.0799
     30 N          61.9566   90.6496   10.7033 N.ar    1  UNL1       -0.3038
     31 C          61.8899   90.0054    9.3502 C.ar    1  UNL1        0.0772
     32 C          63.2058   91.0728   11.4177 C.ar    1  UNL1        0.0640
     33 C          64.2102   91.9421   10.7212 C.ar    1  UNL1        0.0175
     34 C          65.4595   92.3653   11.4357 C.ar    1  UNL1        0.0053
     35 C          65.7041   91.9191   12.8467 C.ar    1  UNL1        0.0715
     36 C          64.6996   91.0497   13.5432 C.ar    1  UNL1        0.0053
     37 C          63.4505   90.6265   12.8287 C.ar    1  UNL1        0.0175
     38 C          66.9533   92.3422   13.5612 C.3     1  UNL1        0.4186
     39 F          68.2025   92.7654   14.2757 F       1  UNL1       -0.1659
     40 F          67.7719   91.9317   12.3732 F       1  UNL1       -0.1659
     41 F          66.1347   92.7528   14.7492 F       1  UNL1       -0.1659
@<TRIPOS>BOND
     1     7     8    2
     2     8     9   am
     3     9     1    1
     4     1     2    1
     5     2     3    1
     6     3     4    1
     7     4    26    1
     8    26    27    1
     9    27    28   ar
    10    28    29   ar
    11    29    30   ar
    12    30    32    1
    13    32    33   ar
    14    33    34   ar
    15    34    35   ar
    16    35    38    1
    17    38    39    1
    18    38    40    1
    19    38    41    1
    20    35    36   ar
    21    36    37   ar
    22    30    31   ar
    23     4     5    1
    24     5     6    1
    25     8    10   am
    26    10    11    1
    27    11    12    1
    28    12    13    1
    29    13    14   ar
    30    14    15   ar
    31    15    16   ar
    32    16    17   ar
    33    17    18    1
    34    18    20    1
    35    20    21   ar
    36    21    22   ar
    37    22    23   ar
    38    23    24   ar
    39    24    25   ar
    40     6     1    1
    41    18    10    1
    42    25    20   ar
    43    31    27   ar
    44    17    13   ar
    45    37    32   ar
    46     9    19    1
