@<TRIPOS>MOLECULE
*****
 35 39 0 0 0
SMALL
GASTEIGER

@<TRIPOS>ATOM
      1 C          59.2972   88.8483    7.6056 C.ar    1  UNL1        0.0644
      2 C          59.3359   87.3488    7.5965 C.ar    1  UNL1        0.0155
      3 C          60.1515   86.6133    8.6182 C.ar    1  UNL1       -0.0032
      4 C          60.9284   87.3774    9.6491 C.ar    1  UNL1       -0.0246
      5 C          60.8896   88.8768    9.6582 C.ar    1  UNL1       -0.0234
      6 C          60.0741   89.6123    8.6366 C.ar    1  UNL1        0.0113
      7 C          61.5843   89.8246   10.5905 C.3     1  UNL1        0.0434
      8 C          62.4893   89.5070   11.7439 C.3     1  UNL1        0.0771
      9 N          62.9231   88.1632   12.2498 N.3     1  UNL1       -0.2671
     10 C          62.5590   86.8051   11.7274 C.3     1  UNL1        0.0771
     11 C          61.6713   86.4553   10.5699 C.3     1  UNL1        0.0434
     12 N          58.4816   89.5837    6.5839 N.pl3   1  UNL1       -0.2150
     13 H          57.5020   89.4862    6.5730 H       1  UNL1        0.1737
     14 O          57.8928   91.2566    5.4199 O.2     1  UNL1       -0.1499
     15 S          59.1587   90.4676    5.5787 S.O2    1  UNL1        0.0751
     16 O          60.4245   89.6786    5.7375 O.2     1  UNL1       -0.1499
     17 C          59.8357   91.3515    4.5735 C.ar    1  UNL1        0.1443
     18 C          61.2936   91.1661    4.2733 C.ar    1  UNL1        0.0246
     19 C          61.9706   92.0501    3.2681 C.ar    1  UNL1        0.0357
     20 C          61.1897   93.1193    2.5631 C.ar    1  UNL1        0.1319
     21 N          59.7318   93.3046    2.8633 N.ar    1  UNL1       -0.2278
     22 C          59.0548   92.4207    3.8685 C.ar    1  UNL1        0.1204
     23 N          61.8667   94.0032    1.5579 N.pl3   1  UNL1       -0.2881
     24 C          63.1289   93.5472    0.8879 C.3     1  UNL1        0.1242
     25 C          63.8059   94.4311   -0.1173 C.3     1  UNL1        0.1636
     26 O          63.2207   95.7710   -0.4525 O.3     1  UNL1       -0.3501
     27 C          61.9584   96.2269    0.2176 C.3     1  UNL1        0.1636
     28 C          61.2815   95.3430    1.2227 C.3     1  UNL1        0.1242
     29 C          63.8425   88.1797   13.4349 C.3     1  UNL1        0.1180
     30 C          63.9546   89.4139   14.2801 C.ar    1  UNL1        0.0693
     31 C          65.0954   90.3879   14.2714 C.ar    1  UNL1        0.0379
     32 C          64.7914   91.4666   15.2684 C.ar    1  UNL1        0.1211
     33 N          63.4628   91.1594   15.8932 N.ar    1  UNL1       -0.1713
     34 N          62.9456   89.8907   15.2824 N.ar    1  UNL1       -0.2784
     35 H          62.0935   89.4486   15.5011 H       1  UNL1        0.1886
@<TRIPOS>BOND
     1    14    15    2
     2    15    16    2
     3    15    12    1
     4    12     1    1
     5     1     2   ar
     6     2     3   ar
     7     3     4   ar
     8     4     5   ar
     9     5     6   ar
    10     5     7    1
    11     7     8    1
    12     8     9    1
    13     9    29    1
    14    29    30    1
    15    30    31   ar
    16    31    32   ar
    17    32    33   ar
    18    33    34   ar
    19     9    10    1
    20    10    11    1
    21    15    17    1
    22    17    18   ar
    23    18    19   ar
    24    19    20   ar
    25    20    23    1
    26    23    24    1
    27    24    25    1
    28    25    26    1
    29    26    27    1
    30    27    28    1
    31    20    21   ar
    32    21    22   ar
    33     6     1   ar
    34    34    30   ar
    35    22    17   ar
    36    11     4    1
    37    28    23    1
    38    12    13    1
    39    34    35    1
@<TRIPOS>MOLECULE
*****
 35 39 0 0 0
SMALL
GASTEIGER

@<TRIPOS>ATOM
      1 C          63.4878   89.1289   16.4401 C.ar    1  UNL1        0.0644
      2 C          62.6946   88.4886   17.5405 C.ar    1  UNL1        0.0155
      3 C          62.4833   87.0035   17.5465 C.ar    1  UNL1       -0.0032
      4 C          63.0652   86.1588   16.4519 C.ar    1  UNL1       -0.0246
      5 C          63.8583   86.7991   15.3516 C.ar    1  UNL1       -0.0234
      6 C          64.0696   88.2841   15.3456 C.ar    1  UNL1        0.0113
      7 C          64.5201   86.1467   14.1741 C.3     1  UNL1        0.0434
      8 C          64.5522   84.6928   13.8063 C.3     1  UNL1        0.0771
      9 N          63.9304   83.5324   14.5250 N.3     1  UNL1       -0.2671
     10 C          63.1229   83.5390   15.7891 C.3     1  UNL1        0.0771
     11 C          62.7379   84.7079   16.6467 C.3     1  UNL1        0.0434
     12 N          63.6991   90.6139   16.4342 N.pl3   1  UNL1       -0.2150
     13 H          63.4392   91.1512   17.2172 H       1  UNL1        0.1737
     14 O          65.4825   91.7017   16.0654 O.2     1  UNL1       -0.1499
     15 S          64.3063   91.2802   15.2354 S.O2    1  UNL1        0.0751
     16 O          63.1301   90.8587   14.4053 O.2     1  UNL1       -0.1499
     17 C          64.9136   91.9466   14.0365 C.ar    1  UNL1        0.1443
     18 C          64.3820   91.6520   12.6651 C.ar    1  UNL1        0.0246
     19 C          64.9893   92.3184   11.4664 C.ar    1  UNL1        0.0357
     20 C          66.1281   93.2793   11.6388 C.ar    1  UNL1        0.1319
     21 N          66.6596   93.5739   13.0102 N.ar    1  UNL1       -0.2278
     22 C          66.0524   92.9076   14.2091 C.ar    1  UNL1        0.1204
     23 N          66.7354   93.9457   10.4400 N.pl3   1  UNL1       -0.2881
     24 C          67.5962   93.1562    9.4990 C.3     1  UNL1        0.1242
     25 C          68.2036   93.8225    8.3001 C.3     1  UNL1        0.1636
     26 O          67.9501   95.2783    8.0424 O.3     1  UNL1       -0.3501
     27 C          67.0892   96.0678    8.9836 C.3     1  UNL1        0.1636
     28 C          66.4819   95.4014   10.1823 C.3     1  UNL1        0.1242
     29 C          64.1443   82.1873   13.8965 C.3     1  UNL1        0.1180
     30 C          64.0208   82.0256   12.4104 C.ar    1  UNL1        0.0693
     31 C          63.0078   81.1803   11.6966 C.ar    1  UNL1        0.0379
     32 C          63.2496   81.3131   10.2222 C.ar    1  UNL1        0.1211
     33 N          64.4119   82.2404   10.0247 N.ar    1  UNL1       -0.1713
     34 N          64.8887   82.6807   11.3771 N.ar    1  UNL1       -0.2784
     35 H          65.6393   83.2923   11.5552 H       1  UNL1        0.1886
@<TRIPOS>BOND
     1    14    15    2
     2    15    16    2
     3    15    12    1
     4    12     1    1
     5     1     2   ar
     6     2     3   ar
     7     3     4   ar
     8     4     5   ar
     9     5     6   ar
    10     5     7    1
    11     7     8    1
    12     8     9    1
    13     9    29    1
    14    29    30    1
    15    30    31   ar
    16    31    32   ar
    17    32    33   ar
    18    33    34   ar
    19     9    10    1
    20    10    11    1
    21    15    17    1
    22    17    18   ar
    23    18    19   ar
    24    19    20   ar
    25    20    23    1
    26    23    24    1
    27    24    25    1
    28    25    26    1
    29    26    27    1
    30    27    28    1
    31    20    21   ar
    32    21    22   ar
    33     6     1   ar
    34    34    30   ar
    35    22    17   ar
    36    11     4    1
    37    28    23    1
    38    12    13    1
    39    34    35    1
@<TRIPOS>MOLECULE
*****
 35 39 0 0 0
SMALL
GASTEIGER

@<TRIPOS>ATOM
      1 C          59.2157   88.7375    7.5334 C.ar    1  UNL1        0.0644
      2 C          59.1828   87.2681    7.2335 C.ar    1  UNL1        0.0155
      3 C          59.9532   86.3098    8.0926 C.ar    1  UNL1       -0.0032
      4 C          60.7566   86.8209    9.2517 C.ar    1  UNL1       -0.0246
      5 C          60.7895   88.2901    9.5516 C.ar    1  UNL1       -0.0234
      6 C          60.0191   89.2485    8.6925 C.ar    1  UNL1        0.0113
      7 C          61.5205   89.0044   10.6496 C.3     1  UNL1        0.0434
      8 C          62.3991   88.4257   11.7189 C.3     1  UNL1        0.0771
      9 N          62.7636   86.9899   11.9541 N.3     1  UNL1       -0.2671
     10 C          62.3397   85.7780   11.1783 C.3     1  UNL1        0.0771
     11 C          61.4465   85.7028    9.9756 C.3     1  UNL1        0.0434
     12 N          58.4452   89.6957    6.6743 N.pl3   1  UNL1       -0.2150
     13 H          57.4709   89.7826    6.7855 H       1  UNL1        0.1737
     14 O          57.8931   91.2785    5.3743 O.2     1  UNL1       -0.1499
     15 S          59.1594   90.5215    5.6457 S.O2    1  UNL1        0.0751
     16 O          60.4256   89.7646    5.9170 O.2     1  UNL1       -0.1499
     17 C          59.8735   91.3474    4.6170 C.ar    1  UNL1        0.1443
     18 C          61.3276   91.1059    4.3389 C.ar    1  UNL1        0.0246
     19 C          62.0416   91.9318    3.3103 C.ar    1  UNL1        0.0357
     20 C          61.3017   92.9991    2.5598 C.ar    1  UNL1        0.1319
     21 N          59.8475   93.2405    2.8378 N.ar    1  UNL1       -0.2278
     22 C          59.1334   92.4147    3.8665 C.ar    1  UNL1        0.1204
     23 N          62.0157   93.8249    1.5311 N.pl3   1  UNL1       -0.2881
     24 C          63.4363   93.5076    1.1689 C.3     1  UNL1        0.1242
     25 C          64.1504   94.3334    0.1402 C.3     1  UNL1        0.1636
     26 O          63.4439   95.4766   -0.5262 O.3     1  UNL1       -0.3501
     27 C          62.0232   95.7939   -0.1638 C.3     1  UNL1        0.1636
     28 C          61.3093   94.9681    0.8647 C.3     1  UNL1        0.1242
     29 C          63.6722   86.7316   13.1193 C.3     1  UNL1        0.1180
     30 C          63.5817   85.4350   13.8681 C.ar    1  UNL1        0.0693
     31 C          64.6210   84.3536   13.8874 C.ar    1  UNL1        0.0379
     32 C          64.1176   83.2425   14.7603 C.ar    1  UNL1        0.1211
     33 N          62.7672   83.6371   15.2805 N.ar    1  UNL1       -0.1713
     34 N          62.4360   84.9923   14.7291 N.ar    1  UNL1       -0.2784
     35 H          61.6114   85.5016   14.9020 H       1  UNL1        0.1886
@<TRIPOS>BOND
     1    14    15    2
     2    15    16    2
     3    15    12    1
     4    12     1    1
     5     1     2   ar
     6     2     3   ar
     7     3     4   ar
     8     4     5   ar
     9     5     6   ar
    10     5     7    1
    11     7     8    1
    12     8     9    1
    13     9    29    1
    14    29    30    1
    15    30    31   ar
    16    31    32   ar
    17    32    33   ar
    18    33    34   ar
    19     9    10    1
    20    10    11    1
    21    15    17    1
    22    17    18   ar
    23    18    19   ar
    24    19    20   ar
    25    20    23    1
    26    23    24    1
    27    24    25    1
    28    25    26    1
    29    26    27    1
    30    27    28    1
    31    20    21   ar
    32    21    22   ar
    33     6     1   ar
    34    34    30   ar
    35    22    17   ar
    36    11     4    1
    37    28    23    1
    38    12    13    1
    39    34    35    1
@<TRIPOS>MOLECULE
*****
 35 39 0 0 0
SMALL
GASTEIGER

@<TRIPOS>ATOM
      1 C          58.9078   90.2177    5.8553 C.ar    1  UNL1        0.0644
      2 C          58.0645   91.3266    5.2992 C.ar    1  UNL1        0.0155
      3 C          58.6450   92.2802    4.2973 C.ar    1  UNL1       -0.0032
      4 C          60.0689   92.1248    3.8516 C.ar    1  UNL1       -0.0246
      5 C          60.9121   91.0160    4.4078 C.ar    1  UNL1       -0.0234
      6 C          60.3316   90.0625    5.4096 C.ar    1  UNL1        0.0113
      7 C          62.3427   90.6850    4.1012 C.3     1  UNL1        0.0434
      8 C          63.2832   91.3811    3.1626 C.3     1  UNL1        0.0771
      9 N          63.0255   92.5800    2.2990 N.3     1  UNL1       -0.2671
     10 C          61.7637   93.3791    2.1604 C.3     1  UNL1        0.0771
     11 C          60.4478   93.1766    2.8515 C.3     1  UNL1        0.0434
     12 N          58.3272   89.2642    6.8572 N.pl3   1  UNL1       -0.2150
     13 H          57.3510   89.2002    6.9676 H       1  UNL1        0.1737
     14 O          59.8457   89.6398    8.2901 O.2     1  UNL1       -0.1499
     15 S          59.2340   88.4082    7.6908 S.O2    1  UNL1        0.0751
     16 O          58.6224   87.1766    7.0916 O.2     1  UNL1       -0.1499
     17 C          60.1409   87.5522    8.5245 C.ar    1  UNL1        0.1443
     18 C          61.0089   86.5192    7.8691 C.ar    1  UNL1        0.0246
     19 C          61.9157   85.6633    8.7028 C.ar    1  UNL1        0.0357
     20 C          61.9545   85.8403   10.1918 C.ar    1  UNL1        0.1319
     21 N          61.0865   86.8733   10.8472 N.ar    1  UNL1       -0.2278
     22 C          60.1797   87.7293   10.0136 C.ar    1  UNL1        0.1204
     23 N          62.8613   84.9844   11.0256 N.pl3   1  UNL1       -0.2881
     24 C          63.5728   83.8190   10.4045 C.3     1  UNL1        0.1242
     25 C          64.4796   82.9630   11.2382 C.3     1  UNL1        0.1636
     26 O          64.6750   83.2724   12.6929 O.3     1  UNL1       -0.3501
     27 C          63.9634   84.4378   13.3139 C.3     1  UNL1        0.1636
     28 C          63.0567   85.2937   12.4802 C.3     1  UNL1        0.1242
     29 C          64.1827   93.0409    1.4632 C.3     1  UNL1        0.1180
     30 C          64.6503   94.4637    1.5490 C.ar    1  UNL1        0.0693
     31 C          64.8351   95.4022    0.3935 C.ar    1  UNL1        0.0379
     32 C          65.3141   96.7161    0.9358 C.ar    1  UNL1        0.1211
     33 N          65.4254   96.5898    2.4262 N.ar    1  UNL1       -0.1713
     34 N          65.0151   95.1976    2.8053 N.ar    1  UNL1       -0.2784
     35 H          64.9896   94.8301    3.7183 H       1  UNL1        0.1886
@<TRIPOS>BOND
     1    14    15    2
     2    15    16    2
     3    15    12    1
     4    12     1    1
     5     1     2   ar
     6     2     3   ar
     7     3     4   ar
     8     4     5   ar
     9     5     6   ar
    10     5     7    1
    11     7     8    1
    12     8     9    1
    13     9    29    1
    14    29    30    1
    15    30    31   ar
    16    31    32   ar
    17    32    33   ar
    18    33    34   ar
    19     9    10    1
    20    10    11    1
    21    15    17    1
    22    17    18   ar
    23    18    19   ar
    24    19    20   ar
    25    20    23    1
    26    23    24    1
    27    24    25    1
    28    25    26    1
    29    26    27    1
    30    27    28    1
    31    20    21   ar
    32    21    22   ar
    33     6     1   ar
    34    34    30   ar
    35    22    17   ar
    36    11     4    1
    37    28    23    1
    38    12    13    1
    39    34    35    1
@<TRIPOS>MOLECULE
*****
 35 39 0 0 0
SMALL
GASTEIGER

@<TRIPOS>ATOM
      1 C          58.9255   90.2627    5.8147 C.ar    1  UNL1        0.0644
      2 C          58.0957   91.3861    5.2675 C.ar    1  UNL1        0.0155
      3 C          58.6858   92.3368    4.2685 C.ar    1  UNL1       -0.0032
      4 C          60.1058   92.1641    3.8168 C.ar    1  UNL1       -0.0246
      5 C          60.9355   91.0407    4.3640 C.ar    1  UNL1       -0.0234
      6 C          60.3454   90.0900    5.3630 C.ar    1  UNL1        0.0113
      7 C          62.3602   90.6914    4.0504 C.3     1  UNL1        0.0434
      8 C          63.3070   91.3793    3.1120 C.3     1  UNL1        0.0771
      9 N          63.0629   92.5863    2.2557 N.3     1  UNL1       -0.2671
     10 C          61.8118   93.4036    2.1260 C.3     1  UNL1        0.0771
     11 C          60.4957   93.2157    2.8208 C.3     1  UNL1        0.0434
     12 N          58.3353   89.3120    6.8137 N.pl3   1  UNL1       -0.2150
     13 H          57.3586   89.2596    6.9259 H       1  UNL1        0.1737
     14 O          58.6207   87.2203    7.0220 O.2     1  UNL1       -0.1499
     15 S          59.2333   88.4413    7.6417 S.O2    1  UNL1        0.0751
     16 O          59.8458   89.6623    8.2613 O.2     1  UNL1       -0.1499
     17 C          60.1312   87.5706    8.4696 C.ar    1  UNL1        0.1443
     18 C          60.2222   87.7819    9.9519 C.ar    1  UNL1        0.0246
     19 C          61.1202   86.9112   10.7798 C.ar    1  UNL1        0.0357
     20 C          61.9271   85.8291   10.1256 C.ar    1  UNL1        0.1319
     21 N          61.8361   85.6178    8.6433 N.ar    1  UNL1       -0.2278
     22 C          60.9382   86.4885    7.8153 C.ar    1  UNL1        0.1204
     23 N          62.8251   84.9584   10.9535 N.pl3   1  UNL1       -0.2881
     24 C          62.9512   85.1992   12.4287 C.3     1  UNL1        0.1242
     25 C          63.8492   84.3284   13.2566 C.3     1  UNL1        0.1636
     26 O          64.6210   83.2169   12.6094 O.3     1  UNL1       -0.3501
     27 C          64.4949   82.9762   11.1342 C.3     1  UNL1        0.1636
     28 C          63.5970   83.8469   10.3063 C.3     1  UNL1        0.1242
     29 C          64.2233   93.0355    1.4181 C.3     1  UNL1        0.1180
     30 C          63.9812   93.7807    0.1390 C.ar    1  UNL1        0.0693
     31 C          64.7450   94.9790   -0.3414 C.ar    1  UNL1        0.0379
     32 C          64.1686   95.3973   -1.6616 C.ar    1  UNL1        0.1211
     33 N          63.0486   94.4576   -1.9971 N.ar    1  UNL1       -0.1713
     34 N          62.9328   93.4584   -0.8842 N.ar    1  UNL1       -0.2784
     35 H          62.2828   92.7207   -0.8342 H       1  UNL1        0.1886
@<TRIPOS>BOND
     1    14    15    2
     2    15    16    2
     3    15    12    1
     4    12     1    1
     5     1     2   ar
     6     2     3   ar
     7     3     4   ar
     8     4     5   ar
     9     5     6   ar
    10     5     7    1
    11     7     8    1
    12     8     9    1
    13     9    29    1
    14    29    30    1
    15    30    31   ar
    16    31    32   ar
    17    32    33   ar
    18    33    34   ar
    19     9    10    1
    20    10    11    1
    21    15    17    1
    22    17    18   ar
    23    18    19   ar
    24    19    20   ar
    25    20    23    1
    26    23    24    1
    27    24    25    1
    28    25    26    1
    29    26    27    1
    30    27    28    1
    31    20    21   ar
    32    21    22   ar
    33     6     1   ar
    34    34    30   ar
    35    22    17   ar
    36    11     4    1
    37    28    23    1
    38    12    13    1
    39    34    35    1
@<TRIPOS>MOLECULE
*****
 35 39 0 0 0
SMALL
GASTEIGER

@<TRIPOS>ATOM
      1 C          59.1438   90.0829    5.7514 C.ar    1  UNL1        0.0644
      2 C          58.1799   91.1697    5.3776 C.ar    1  UNL1        0.0155
      3 C          58.6085   92.2648    4.4463 C.ar    1  UNL1       -0.0032
      4 C          60.0010   92.2729    3.8888 C.ar    1  UNL1       -0.0246
      5 C          60.9648   91.1861    4.2625 C.ar    1  UNL1       -0.0234
      6 C          60.5363   90.0911    5.1938 C.ar    1  UNL1        0.0113
      7 C          62.3879   91.0064    3.8235 C.3     1  UNL1        0.0434
      8 C          63.1985   91.8692    2.9023 C.3     1  UNL1        0.0771
      9 N          62.7862   93.1247    2.1927 N.3     1  UNL1       -0.2671
     10 C          61.4616   93.8276    2.2288 C.3     1  UNL1        0.0771
     11 C          60.2220   93.4485    2.9837 C.3     1  UNL1        0.0434
     12 N          58.7151   88.9880    6.6827 N.pl3   1  UNL1       -0.2150
     13 H          57.8653   88.5155    6.5288 H       1  UNL1        0.1737
     14 O          59.6397   87.1993    7.3503 O.2     1  UNL1       -0.1499
     15 S          59.5815   88.6130    7.8484 S.O2    1  UNL1        0.0751
     16 O          59.5232   90.0267    8.3465 O.2     1  UNL1       -0.1499
     17 C          60.4478   88.2380    9.0141 C.ar    1  UNL1        0.1443
     18 C          60.6225   86.7951    9.3852 C.ar    1  UNL1        0.0246
     19 C          61.4888   86.4202   10.5509 C.ar    1  UNL1        0.0357
     20 C          62.1804   87.4880   11.3456 C.ar    1  UNL1        0.1319
     21 N          62.0057   88.9308   10.9745 N.ar    1  UNL1       -0.2278
     22 C          61.1394   89.3058    9.8088 C.ar    1  UNL1        0.1204
     23 N          63.0467   87.1130   12.5113 N.pl3   1  UNL1       -0.2881
     24 C          63.2611   85.6681   12.8522 C.3     1  UNL1        0.1242
     25 C          64.1274   85.2931   14.0179 C.3     1  UNL1        0.1636
     26 O          64.7793   86.3630   14.8428 O.3     1  UNL1       -0.3501
     27 C          64.5649   87.8080   14.5018 C.3     1  UNL1        0.1636
     28 C          63.6986   88.1829   13.3361 C.3     1  UNL1        0.1242
     29 C          63.8376   93.7616    1.3331 C.3     1  UNL1        0.1180
     30 C          63.4563   94.3986    0.0296 C.ar    1  UNL1        0.0693
     31 C          63.2228   93.6817   -1.2671 C.ar    1  UNL1        0.0379
     32 C          62.8637   94.7044   -2.3039 C.ar    1  UNL1        0.1211
     33 N          62.8751   96.0533   -1.6481 N.ar    1  UNL1       -0.1713
     34 N          63.2414   95.8644   -0.2058 N.ar    1  UNL1       -0.2784
     35 H          63.3259   96.5772    0.4680 H       1  UNL1        0.1886
@<TRIPOS>BOND
     1    14    15    2
     2    15    16    2
     3    15    12    1
     4    12     1    1
     5     1     2   ar
     6     2     3   ar
     7     3     4   ar
     8     4     5   ar
     9     5     6   ar
    10     5     7    1
    11     7     8    1
    12     8     9    1
    13     9    29    1
    14    29    30    1
    15    30    31   ar
    16    31    32   ar
    17    32    33   ar
    18    33    34   ar
    19     9    10    1
    20    10    11    1
    21    15    17    1
    22    17    18   ar
    23    18    19   ar
    24    19    20   ar
    25    20    23    1
    26    23    24    1
    27    24    25    1
    28    25    26    1
    29    26    27    1
    30    27    28    1
    31    20    21   ar
    32    21    22   ar
    33     6     1   ar
    34    34    30   ar
    35    22    17   ar
    36    11     4    1
    37    28    23    1
    38    12    13    1
    39    34    35    1
@<TRIPOS>MOLECULE
*****
 35 39 0 0 0
SMALL
GASTEIGER

@<TRIPOS>ATOM
      1 C          59.8578   88.9169    8.2574 C.ar    1  UNL1        0.0644
      2 C          60.4506   90.0965    8.9695 C.ar    1  UNL1        0.0155
      3 C          61.3606   89.8845   10.1430 C.ar    1  UNL1       -0.0032
      4 C          61.6777   88.4928   10.6043 C.ar    1  UNL1       -0.0246
      5 C          61.0849   87.3134    9.8922 C.ar    1  UNL1       -0.0234
      6 C          60.1749   87.5253    8.7187 C.ar    1  UNL1        0.0113
      7 C          61.2691   85.8539   10.1861 C.3     1  UNL1        0.0434
      8 C          62.0918   85.2138   11.2649 C.3     1  UNL1        0.0771
      9 N          62.9332   85.8749   12.3159 N.3     1  UNL1       -0.2671
     10 C          63.1600   87.3394   12.5480 C.3     1  UNL1        0.0771
     11 C          62.6012   88.5045   11.7863 C.3     1  UNL1        0.0434
     12 N          58.9478   89.1290    7.0839 N.pl3   1  UNL1       -0.2150
     13 H          58.0945   88.6411    7.0282 H       1  UNL1        0.1737
     14 O          60.7417   89.5571    6.0357 O.2     1  UNL1       -0.1499
     15 S          59.3380   90.0844    5.9954 S.O2    1  UNL1        0.0751
     16 O          57.9344   90.6117    5.9550 O.2     1  UNL1       -0.1499
     17 C          59.7283   91.0398    4.9068 C.ar    1  UNL1        0.1443
     18 C          61.1565   91.1197    4.4554 C.ar    1  UNL1        0.0246
     19 C          61.5466   92.0751    3.3669 C.ar    1  UNL1        0.0357
     20 C          60.5087   92.9507    2.7297 C.ar    1  UNL1        0.1319
     21 N          59.0804   92.8709    3.1812 N.ar    1  UNL1       -0.2278
     22 C          58.6902   91.9154    4.2697 C.ar    1  UNL1        0.1204
     23 N          60.8988   93.9061    1.6412 N.pl3   1  UNL1       -0.2881
     24 C          60.0495   95.1102    1.3603 C.3     1  UNL1        0.1242
     25 C          60.4395   96.0657    0.2718 C.3     1  UNL1        0.1636
     26 O          61.6789   95.8172   -0.5358 O.3     1  UNL1       -0.3501
     27 C          62.5282   94.6130   -0.2549 C.3     1  UNL1        0.1636
     28 C          62.1381   93.6576    0.8336 C.3     1  UNL1        0.1242
     29 C          63.6417   84.9490   13.2598 C.3     1  UNL1        0.1180
     30 C          63.1468   83.5453   13.4464 C.ar    1  UNL1        0.0693
     31 C          63.6147   82.3375   12.6898 C.ar    1  UNL1        0.0379
     32 C          62.8541   81.1488   13.1982 C.ar    1  UNL1        0.1211
     33 N          61.9162   81.6218   14.2689 N.ar    1  UNL1       -0.1713
     34 N          62.0970   83.1030   14.4224 N.ar    1  UNL1       -0.2784
     35 H          61.6119   83.6830   15.0529 H       1  UNL1        0.1886
@<TRIPOS>BOND
     1    14    15    2
     2    15    16    2
     3    15    12    1
     4    12     1    1
     5     1     2   ar
     6     2     3   ar
     7     3     4   ar
     8     4     5   ar
     9     5     6   ar
    10     5     7    1
    11     7     8    1
    12     8     9    1
    13     9    29    1
    14    29    30    1
    15    30    31   ar
    16    31    32   ar
    17    32    33   ar
    18    33    34   ar
    19     9    10    1
    20    10    11    1
    21    15    17    1
    22    17    18   ar
    23    18    19   ar
    24    19    20   ar
    25    20    23    1
    26    23    24    1
    27    24    25    1
    28    25    26    1
    29    26    27    1
    30    27    28    1
    31    20    21   ar
    32    21    22   ar
    33     6     1   ar
    34    34    30   ar
    35    22    17   ar
    36    11     4    1
    37    28    23    1
    38    12    13    1
    39    34    35    1
@<TRIPOS>MOLECULE
*****
 35 39 0 0 0
SMALL
GASTEIGER

@<TRIPOS>ATOM
      1 C          59.2775   89.8266    7.0550 C.ar    1  UNL1        0.0644
      2 C          58.9174   88.4687    6.5293 C.ar    1  UNL1        0.0155
      3 C          59.3996   87.2378    7.2382 C.ar    1  UNL1       -0.0032
      4 C          60.2420   87.3650    8.4728 C.ar    1  UNL1       -0.0246
      5 C          60.6022   88.7228    8.9984 C.ar    1  UNL1       -0.0234
      6 C          60.1200   89.9537    8.2896 C.ar    1  UNL1        0.0113
      7 C          61.4247   89.0714   10.2035 C.3     1  UNL1        0.0434
      8 C          62.0901   88.1479   11.1805 C.3     1  UNL1        0.0771
      9 N          62.0974   86.6480   11.1937 N.3     1  UNL1       -0.2671
     10 C          61.4411   85.7010   10.2332 C.3     1  UNL1        0.0771
     11 C          60.6154   86.0201    9.0223 C.3     1  UNL1        0.0434
     12 N          58.7953   91.0574    6.3460 N.pl3   1  UNL1       -0.2150
     13 H          58.0206   91.5547    6.6949 H       1  UNL1        0.1737
     14 O          60.6886   90.6961    5.4600 O.2     1  UNL1       -0.1499
     15 S          59.4935   91.5304    5.1056 S.O2    1  UNL1        0.0751
     16 O          58.2984   92.3647    4.7511 O.2     1  UNL1       -0.1499
     17 C          60.1917   92.0034    3.8651 C.ar    1  UNL1        0.1443
     18 C          59.4253   92.7431    2.8089 C.ar    1  UNL1        0.0246
     19 C          60.1235   93.2161    1.5684 C.ar    1  UNL1        0.0357
     20 C          61.5881   92.9495    1.3841 C.ar    1  UNL1        0.1319
     21 N          62.3545   92.2097    2.4403 N.ar    1  UNL1       -0.2278
     22 C          61.6563   91.7367    3.6808 C.ar    1  UNL1        0.1204
     23 N          62.2863   93.4224    0.1436 N.pl3   1  UNL1       -0.2881
     24 C          63.5644   94.2000    0.2528 C.3     1  UNL1        0.1242
     25 C          64.2628   94.6730   -0.9876 C.3     1  UNL1        0.1636
     26 O          63.6830   94.3685   -2.3372 O.3     1  UNL1       -0.3501
     27 C          62.4049   93.5909   -2.4462 C.3     1  UNL1        0.1636
     28 C          61.7066   93.1179   -1.2059 C.3     1  UNL1        0.1242
     29 C          62.8622   86.0108   12.3158 C.3     1  UNL1        0.1180
     30 C          63.3528   84.5995   12.1826 C.ar    1  UNL1        0.0693
     31 C          63.6073   83.8722   10.8957 C.ar    1  UNL1        0.0379
     32 C          64.0867   82.4910   11.2309 C.ar    1  UNL1        0.1211
     33 N          64.1285   82.3646   12.7249 N.ar    1  UNL1       -0.1713
     34 N          63.6749   83.6677   13.3132 N.ar    1  UNL1       -0.2784
     35 H          63.6014   83.8751   14.2728 H       1  UNL1        0.1886
@<TRIPOS>BOND
     1    14    15    2
     2    15    16    2
     3    15    12    1
     4    12     1    1
     5     1     2   ar
     6     2     3   ar
     7     3     4   ar
     8     4     5   ar
     9     5     6   ar
    10     5     7    1
    11     7     8    1
    12     8     9    1
    13     9    29    1
    14    29    30    1
    15    30    31   ar
    16    31    32   ar
    17    32    33   ar
    18    33    34   ar
    19     9    10    1
    20    10    11    1
    21    15    17    1
    22    17    18   ar
    23    18    19   ar
    24    19    20   ar
    25    20    23    1
    26    23    24    1
    27    24    25    1
    28    25    26    1
    29    26    27    1
    30    27    28    1
    31    20    21   ar
    32    21    22   ar
    33     6     1   ar
    34    34    30   ar
    35    22    17   ar
    36    11     4    1
    37    28    23    1
    38    12    13    1
    39    34    35    1
@<TRIPOS>MOLECULE
*****
 35 39 0 0 0
SMALL
GASTEIGER

@<TRIPOS>ATOM
      1 C          59.9006   88.2358    8.7968 C.ar    1  UNL1        0.0644
      2 C          60.4626   86.8802    9.1076 C.ar    1  UNL1        0.0155
      3 C          61.4817   86.7226   10.1970 C.ar    1  UNL1       -0.0032
      4 C          61.9387   87.9206   10.9754 C.ar    1  UNL1       -0.0246
      5 C          61.3767   89.2761   10.6645 C.ar    1  UNL1       -0.0234
      6 C          60.3577   89.4337    9.5752 C.ar    1  UNL1        0.0113
      7 C          61.6927   90.5909   11.3138 C.3     1  UNL1        0.0434
      8 C          62.6487   90.8748   12.4344 C.3     1  UNL1        0.0771
      9 N          63.5247   89.9142   13.1823 N.3     1  UNL1       -0.2671
     10 C          63.6613   88.4322   12.9945 C.3     1  UNL1        0.0771
     11 C          62.9555   87.5450   12.0124 C.3     1  UNL1        0.0434
     12 N          58.8815   88.3933    7.7074 N.pl3   1  UNL1       -0.2150
     13 H          58.0829   87.8177    7.6934 H       1  UNL1        0.1737
     14 O          57.5929   89.5347    6.4678 O.2     1  UNL1       -0.1499
     15 S          59.0792   89.4279    6.6395 S.O2    1  UNL1        0.0751
     16 O          60.5655   89.3211    6.8112 O.2     1  UNL1       -0.1499
     17 C          59.2769   90.4625    5.5715 C.ar    1  UNL1        0.1443
     18 C          60.6434   90.6987    4.9999 C.ar    1  UNL1        0.0246
     19 C          60.8410   91.7333    3.9319 C.ar    1  UNL1        0.0357
     20 C          59.6722   92.5318    3.4356 C.ar    1  UNL1        0.1319
     21 N          58.3056   92.2956    4.0073 N.ar    1  UNL1       -0.2278
     22 C          58.1080   91.2610    5.0752 C.ar    1  UNL1        0.1204
     23 N          59.8698   93.5664    2.3677 N.pl3   1  UNL1       -0.2881
     24 C          60.5764   94.8500    2.6887 C.3     1  UNL1        0.1242
     25 C          60.7740   95.8847    1.6208 C.3     1  UNL1        0.1636
     26 O          60.2650   95.6358    0.2319 O.3     1  UNL1       -0.3501
     27 C          59.5584   94.3521   -0.0891 C.3     1  UNL1        0.1636
     28 C          59.3609   93.3175    0.9788 C.3     1  UNL1        0.1242
     29 C          64.3770   90.5148   14.2606 C.3     1  UNL1        0.1180
     30 C          65.5971   91.3083   13.8977 C.ar    1  UNL1        0.0693
     31 C          66.9115   91.2845   14.6201 C.ar    1  UNL1        0.0379
     32 C          67.8437   92.2264   13.9175 C.ar    1  UNL1        0.1211
     33 N          67.1056   92.8324   12.7608 N.ar    1  UNL1       -0.1713
     34 N          65.7170   92.2650   12.7485 N.ar    1  UNL1       -0.2784
     35 H          65.0088   92.4823   12.1001 H       1  UNL1        0.1886
@<TRIPOS>BOND
     1    14    15    2
     2    15    16    2
     3    15    12    1
     4    12     1    1
     5     1     2   ar
     6     2     3   ar
     7     3     4   ar
     8     4     5   ar
     9     5     6   ar
    10     5     7    1
    11     7     8    1
    12     8     9    1
    13     9    29    1
    14    29    30    1
    15    30    31   ar
    16    31    32   ar
    17    32    33   ar
    18    33    34   ar
    19     9    10    1
    20    10    11    1
    21    15    17    1
    22    17    18   ar
    23    18    19   ar
    24    19    20   ar
    25    20    23    1
    26    23    24    1
    27    24    25    1
    28    25    26    1
    29    26    27    1
    30    27    28    1
    31    20    21   ar
    32    21    22   ar
    33     6     1   ar
    34    34    30   ar
    35    22    17   ar
    36    11     4    1
    37    28    23    1
    38    12    13    1
    39    34    35    1
