@<TRIPOS>MOLECULE
*****
 30 33 0 0 0
SMALL
GASTEIGER

@<TRIPOS>ATOM
      1 C          61.1991   88.8731   10.2277 C.ar    1  UNL1        0.1389
      2 C          62.1009   89.9180   10.8149 C.ar    1  UNL1        0.0553
      3 C          63.1414   89.5300   11.8233 C.ar    1  UNL1        0.1048
      4 N          63.2800   88.0971   12.2445 N.ar    1  UNL1       -0.2083
      5 C          62.3781   87.0522   11.6574 C.ar    1  UNL1        0.2539
      6 N          61.3377   87.4402   10.6490 N.ar    1  UNL1       -0.1948
      7 N          62.5167   85.6191   12.0787 N.ar    1  UNL1       -0.2008
      8 N          62.3357   85.0876   13.4696 N.ar    1  UNL1       -0.1673
      9 C          62.5677   83.6061   13.4336 C.ar    1  UNL1        0.0806
     10 C          62.4892   82.6727   14.6051 C.3     1  UNL1        0.0540
     11 C          62.8921   83.2220   12.0203 C.ar    1  UNL1        0.0313
     12 C          62.8606   84.4661   11.1830 C.ar    1  UNL1        0.0651
     13 C          63.1263   84.5436    9.7087 C.3     1  UNL1        0.0523
     14 C          64.0433   90.5750   12.4104 C.ar    1  UNL1        0.1005
     15 C          64.3285   90.5779   13.8830 C.ar    1  UNL1        0.0208
     16 C          65.2304   91.6228   14.4702 C.ar    1  UNL1        0.0045
     17 C          65.8470   92.6649   13.5847 C.ar    1  UNL1        0.0343
     18 C          65.5617   92.6619   12.1121 C.ar    1  UNL1        0.1318
     19 N          64.6598   91.6169   11.5250 N.ar    1  UNL1       -0.2292
     20 N          66.1782   93.7039   11.2267 N.pl3   1  UNL1       -0.2881
     21 C          66.0501   95.1568   11.5768 C.3     1  UNL1        0.1242
     22 C          66.6667   96.1989   10.6913 C.3     1  UNL1        0.1636
     23 O          67.4114   95.7880    9.4557 O.3     1  UNL1       -0.3501
     24 C          67.5395   94.3350    9.1056 C.3     1  UNL1        0.1636
     25 C          66.9229   93.2930    9.9911 C.3     1  UNL1        0.1242
     26 C          58.8104   88.7358    7.0615 C.3     1  UNL1        0.0950
     27 C          59.8508   88.3478    8.0699 C.2     1  UNL1        0.2277
     28 O          60.5835   87.0465    7.9288 O.2     1  UNL1       -0.2747
     29 N          60.1586   89.2611    9.2193 N.am    1  UNL1       -0.2692
     30 H          59.6777   90.1151    9.3119 H       1  UNL1        0.1563
@<TRIPOS>BOND
     1    26    27    1
     2    27    28    2
     3    27    29   am
     4    29     1    1
     5     1     2   ar
     6     2     3   ar
     7     3    14    1
     8    14    15   ar
     9    15    16   ar
    10    16    17   ar
    11    17    18   ar
    12    18    20    1
    13    20    21    1
    14    21    22    1
    15    22    23    1
    16    23    24    1
    17    24    25    1
    18    18    19   ar
    19     3     4   ar
    20     4     5   ar
    21     5     7    1
    22     7     8   ar
    23     8     9   ar
    24     9    10    1
    25     9    11   ar
    26    11    12   ar
    27    12    13    1
    28     5     6   ar
    29     6     1   ar
    30    19    14   ar
    31    12     7   ar
    32    25    20    1
    33    29    30    1
@<TRIPOS>MOLECULE
*****
 30 33 0 0 0
SMALL
GASTEIGER

@<TRIPOS>ATOM
      1 C          61.3234   88.3146   10.8337 C.ar    1  UNL1        0.1389
      2 C          62.1664   89.4367   11.3631 C.ar    1  UNL1        0.0553
      3 C          63.2698   89.1503   12.3379 C.ar    1  UNL1        0.1048
      4 N          63.5304   87.7419   12.7833 N.ar    1  UNL1       -0.2083
      5 C          62.6874   86.6198   12.2539 C.ar    1  UNL1        0.2539
      6 N          61.5839   86.9062   11.2790 N.ar    1  UNL1       -0.1948
      7 N          62.9479   85.2113   12.6993 N.ar    1  UNL1       -0.2008
      8 N          62.5196   83.9660   11.9810 N.ar    1  UNL1       -0.1673
      9 C          62.9893   82.7859   12.7788 C.ar    1  UNL1        0.0806
     10 C          62.7776   81.3432   12.4271 C.3     1  UNL1        0.0540
     11 C          63.7080   83.3018   13.9902 C.ar    1  UNL1        0.0313
     12 C          63.6824   84.8008   13.9410 C.ar    1  UNL1        0.0651
     13 C          64.2854   85.7267   14.9554 C.3     1  UNL1        0.0523
     14 C          64.1128   90.2724   12.8674 C.ar    1  UNL1        0.1005
     15 C          64.3342   90.4118   14.3444 C.ar    1  UNL1        0.0208
     16 C          65.1771   91.5338   14.8739 C.ar    1  UNL1        0.0045
     17 C          65.7988   92.5166   13.9263 C.ar    1  UNL1        0.0343
     18 C          65.5774   92.3773   12.4493 C.ar    1  UNL1        0.1318
     19 N          64.7344   91.2551   11.9199 N.ar    1  UNL1       -0.2292
     20 N          66.1990   93.3600   11.5018 N.pl3   1  UNL1       -0.2881
     21 C          66.9838   92.8699   10.3212 C.3     1  UNL1        0.1242
     22 C          67.6055   93.8526    9.3736 C.3     1  UNL1        0.1636
     23 O          67.4422   95.3254    9.6066 O.3     1  UNL1       -0.3501
     24 C          66.6573   95.8155   10.7873 C.3     1  UNL1        0.1636
     25 C          66.0357   94.8328   11.7348 C.3     1  UNL1        0.1242
     26 C          59.0133   88.0958    7.6141 C.3     1  UNL1        0.0950
     27 C          60.1168   87.8094    8.5889 C.2     1  UNL1        0.2277
     28 O          61.1173   86.7314    8.2938 O.2     1  UNL1       -0.2747
     29 N          60.2199   88.6010    9.8588 N.am    1  UNL1       -0.2692
     30 H          59.5633   89.3085   10.0525 H       1  UNL1        0.1563
@<TRIPOS>BOND
     1    26    27    1
     2    27    28    2
     3    27    29   am
     4    29     1    1
     5     1     2   ar
     6     2     3   ar
     7     3    14    1
     8    14    15   ar
     9    15    16   ar
    10    16    17   ar
    11    17    18   ar
    12    18    20    1
    13    20    21    1
    14    21    22    1
    15    22    23    1
    16    23    24    1
    17    24    25    1
    18    18    19   ar
    19     3     4   ar
    20     4     5   ar
    21     5     7    1
    22     7     8   ar
    23     8     9   ar
    24     9    10    1
    25     9    11   ar
    26    11    12   ar
    27    12    13    1
    28     5     6   ar
    29     6     1   ar
    30    19    14   ar
    31    12     7   ar
    32    25    20    1
    33    29    30    1
@<TRIPOS>MOLECULE
*****
 30 33 0 0 0
SMALL
GASTEIGER

@<TRIPOS>ATOM
      1 C          62.0054   89.8975   10.6278 C.ar    1  UNL1        0.1389
      2 C          62.2506   88.7130   11.5148 C.ar    1  UNL1        0.0553
      3 C          63.3754   88.7390   12.5069 C.ar    1  UNL1        0.1048
      4 N          64.2549   89.9495   12.6119 N.ar    1  UNL1       -0.2083
      5 C          64.0097   91.1340   11.7249 C.ar    1  UNL1        0.2539
      6 N          62.8849   91.1080   10.7329 N.ar    1  UNL1       -0.1948
      7 N          64.8893   92.3446   11.8300 N.ar    1  UNL1       -0.2008
      8 N          65.1197   93.3631   10.7531 N.ar    1  UNL1       -0.1673
      9 C          66.0656   94.3971   11.2879 C.ar    1  UNL1        0.0806
     10 C          66.5690   95.5995   10.5456 C.3     1  UNL1        0.0540
     11 C          66.4198   94.0176   12.6952 C.ar    1  UNL1        0.0313
     12 C          65.6928   92.7491   13.0302 C.ar    1  UNL1        0.0651
     13 C          65.7579   92.0142   14.3362 C.3     1  UNL1        0.0523
     14 C          63.6206   87.5545   13.3939 C.ar    1  UNL1        0.1005
     15 C          64.2590   87.7434   14.7381 C.ar    1  UNL1        0.0208
     16 C          64.5042   86.5589   15.6251 C.ar    1  UNL1        0.0045
     17 C          64.1110   85.1854   15.1679 C.ar    1  UNL1        0.0343
     18 C          63.4727   84.9964   13.8237 C.ar    1  UNL1        0.1318
     19 N          63.2275   86.1810   12.9367 N.ar    1  UNL1       -0.2292
     20 N          63.0796   83.6230   13.3666 N.pl3   1  UNL1       -0.2881
     21 C          62.3560   82.6999   14.3015 C.3     1  UNL1        0.1242
     22 C          61.9628   81.3263   13.8444 C.3     1  UNL1        0.1636
     23 O          62.2933   80.8760   12.4523 O.3     1  UNL1       -0.3501
     24 C          63.0169   81.7992   11.5173 C.3     1  UNL1        0.1636
     25 C          63.4100   83.1727   11.9745 C.3     1  UNL1        0.1242
     26 C          59.4722   88.5959    7.8640 C.3     1  UNL1        0.0950
     27 C          60.5970   88.6219    8.8560 C.2     1  UNL1        0.2277
     28 O          61.4382   87.3982    9.0684 O.2     1  UNL1       -0.2747
     29 N          60.8806   89.8715    9.6357 N.am    1  UNL1       -0.2692
     30 H          60.3285   90.6746    9.4964 H       1  UNL1        0.1563
@<TRIPOS>BOND
     1    26    27    1
     2    27    28    2
     3    27    29   am
     4    29     1    1
     5     1     2   ar
     6     2     3   ar
     7     3    14    1
     8    14    15   ar
     9    15    16   ar
    10    16    17   ar
    11    17    18   ar
    12    18    20    1
    13    20    21    1
    14    21    22    1
    15    22    23    1
    16    23    24    1
    17    24    25    1
    18    18    19   ar
    19     3     4   ar
    20     4     5   ar
    21     5     7    1
    22     7     8   ar
    23     8     9   ar
    24     9    10    1
    25     9    11   ar
    26    11    12   ar
    27    12    13    1
    28     5     6   ar
    29     6     1   ar
    30    19    14   ar
    31    12     7   ar
    32    25    20    1
    33    29    30    1
@<TRIPOS>MOLECULE
*****
 30 33 0 0 0
SMALL
GASTEIGER

@<TRIPOS>ATOM
      1 C          63.8467   87.4239   13.9690 C.ar    1  UNL1        0.1389
      2 C          64.5624   88.7207   14.2055 C.ar    1  UNL1        0.0553
      3 C          64.3502   89.8756   13.2720 C.ar    1  UNL1        0.1048
      4 N          63.4224   89.7335   12.1020 N.ar    1  UNL1       -0.2083
      5 C          62.7068   88.4366   11.8655 C.ar    1  UNL1        0.2539
      6 N          62.9189   87.2818   12.7990 N.ar    1  UNL1       -0.1948
      7 N          61.7789   88.2945   10.6954 N.ar    1  UNL1       -0.2008
      8 N          61.7005   87.1163    9.7704 N.ar    1  UNL1       -0.1673
      9 C          60.6398   87.3993    8.7482 C.ar    1  UNL1        0.0806
     10 C          60.2284   86.4890    7.6293 C.3     1  UNL1        0.0540
     11 C          60.0626   88.7524    9.0416 C.ar    1  UNL1        0.0313
     12 C          60.7666   89.3057   10.2450 C.ar    1  UNL1        0.0651
     13 C          60.5044   90.6364   10.8855 C.3     1  UNL1        0.0523
     14 C          65.0659   91.1725   13.5086 C.ar    1  UNL1        0.1005
     15 C          65.4832   91.5563   14.8973 C.ar    1  UNL1        0.0208
     16 C          66.1989   92.8531   15.1339 C.ar    1  UNL1        0.0045
     17 C          66.4972   93.7662   13.9818 C.ar    1  UNL1        0.0343
     18 C          66.0798   93.3824   12.5931 C.ar    1  UNL1        0.1318
     19 N          65.3641   92.0855   12.3565 N.ar    1  UNL1       -0.2292
     20 N          66.3780   94.2955   11.4410 N.pl3   1  UNL1       -0.2881
     21 C          66.1352   95.7700   11.5703 C.3     1  UNL1        0.1242
     22 C          66.4335   96.6831   10.4182 C.3     1  UNL1        0.1636
     23 O          66.9745   96.1217    9.1368 O.3     1  UNL1       -0.3501
     24 C          67.2173   94.6471    9.0075 C.3     1  UNL1        0.1636
     25 C          66.9191   93.7340   10.1596 C.3     1  UNL1        0.1242
     26 C          64.2660   83.7109   15.3062 C.3     1  UNL1        0.0950
     27 C          64.0538   84.8658   14.3727 C.2     1  UNL1        0.2277
     28 O          63.8366   84.6172   12.9094 O.2     1  UNL1       -0.2747
     29 N          64.0589   86.2691   14.9024 N.am    1  UNL1       -0.2692
     30 H          64.2015   86.4322   15.8628 H       1  UNL1        0.1563
@<TRIPOS>BOND
     1    26    27    1
     2    27    28    2
     3    27    29   am
     4    29     1    1
     5     1     2   ar
     6     2     3   ar
     7     3    14    1
     8    14    15   ar
     9    15    16   ar
    10    16    17   ar
    11    17    18   ar
    12    18    20    1
    13    20    21    1
    14    21    22    1
    15    22    23    1
    16    23    24    1
    17    24    25    1
    18    18    19   ar
    19     3     4   ar
    20     4     5   ar
    21     5     7    1
    22     7     8   ar
    23     8     9   ar
    24     9    10    1
    25     9    11   ar
    26    11    12   ar
    27    12    13    1
    28     5     6   ar
    29     6     1   ar
    30    19    14   ar
    31    12     7   ar
    32    25    20    1
    33    29    30    1
@<TRIPOS>MOLECULE
*****
 30 33 0 0 0
SMALL
GASTEIGER

@<TRIPOS>ATOM
      1 C          65.6156   91.7523   13.4842 C.ar    1  UNL1        0.1389
      2 C          64.3795   90.9825   13.1248 C.ar    1  UNL1        0.0553
      3 C          63.7985   91.0975   11.7466 C.ar    1  UNL1        0.1048
      4 N          64.4537   91.9824   10.7280 N.ar    1  UNL1       -0.2083
      5 C          65.6899   92.7522   11.0874 C.ar    1  UNL1        0.2539
      6 N          66.2708   92.6371   12.4655 N.ar    1  UNL1       -0.1948
      7 N          66.3451   93.6370   10.0687 N.ar    1  UNL1       -0.2008
      8 N          65.8818   95.0038    9.6596 N.ar    1  UNL1       -0.1673
      9 C          66.8290   95.5220    8.6184 C.ar    1  UNL1        0.0806
     10 C          66.7427   96.8530    7.9321 C.3     1  UNL1        0.0540
     11 C          67.8778   94.4754    8.3839 C.ar    1  UNL1        0.0313
     12 C          67.5787   93.3105    9.2802 C.ar    1  UNL1        0.0651
     13 C          68.3736   92.0418    9.3720 C.3     1  UNL1        0.0523
     14 C          62.5623   90.3277   11.3872 C.ar    1  UNL1        0.1005
     15 C          61.2396   90.7135   11.9802 C.ar    1  UNL1        0.0208
     16 C          60.0034   89.9437   11.6208 C.ar    1  UNL1        0.0045
     17 C          60.0898   88.7880   10.6684 C.ar    1  UNL1        0.0343
     18 C          61.4125   88.4022   10.0754 C.ar    1  UNL1        0.1318
     19 N          62.6487   89.1721   10.4348 N.ar    1  UNL1       -0.2292
     20 N          61.4990   87.2466    9.1230 N.pl3   1  UNL1       -0.2881
     21 C          60.3204   86.8913    8.2660 C.3     1  UNL1        0.1242
     22 C          60.4068   85.7357    7.3135 C.3     1  UNL1        0.1636
     23 O          61.6719   84.9354    7.2182 O.3     1  UNL1       -0.3501
     24 C          62.8506   85.2908    8.0753 C.3     1  UNL1        0.1636
     25 C          62.7641   86.4464    9.0277 C.3     1  UNL1        0.1242
     26 C          68.1694   92.0117   16.5109 C.3     1  UNL1        0.0950
     27 C          67.5884   92.1268   15.1328 C.2     1  UNL1        0.2277
     28 O          68.3994   92.7313   14.0250 O.2     1  UNL1       -0.2747
     29 N          66.1966   91.6373   14.8623 N.am    1  UNL1       -0.2692
     30 H          65.6644   91.2405   15.5894 H       1  UNL1        0.1563
@<TRIPOS>BOND
     1    26    27    1
     2    27    28    2
     3    27    29   am
     4    29     1    1
     5     1     2   ar
     6     2     3   ar
     7     3    14    1
     8    14    15   ar
     9    15    16   ar
    10    16    17   ar
    11    17    18   ar
    12    18    20    1
    13    20    21    1
    14    21    22    1
    15    22    23    1
    16    23    24    1
    17    24    25    1
    18    18    19   ar
    19     3     4   ar
    20     4     5   ar
    21     5     7    1
    22     7     8   ar
    23     8     9   ar
    24     9    10    1
    25     9    11   ar
    26    11    12   ar
    27    12    13    1
    28     5     6   ar
    29     6     1   ar
    30    19    14   ar
    31    12     7   ar
    32    25    20    1
    33    29    30    1
@<TRIPOS>MOLECULE
*****
 30 33 0 0 0
SMALL
GASTEIGER

@<TRIPOS>ATOM
      1 C          61.6498   87.1543    9.9442 C.ar    1  UNL1        0.1389
      2 C          62.2575   88.2362   10.7868 C.ar    1  UNL1        0.0553
      3 C          62.9820   87.8836   12.0520 C.ar    1  UNL1        0.1048
      4 N          63.0988   86.4492   12.4746 N.ar    1  UNL1       -0.2083
      5 C          62.4911   85.3673   11.6320 C.ar    1  UNL1        0.2539
      6 N          61.7665   85.7198   10.3668 N.ar    1  UNL1       -0.1948
      7 N          62.6078   83.9327   12.0546 N.ar    1  UNL1       -0.2008
      8 N          61.9799   83.3177   13.2701 N.ar    1  UNL1       -0.1673
      9 C          62.3569   81.8663   13.3026 C.ar    1  UNL1        0.0806
     10 C          61.9453   80.8716   14.3472 C.3     1  UNL1        0.0540
     11 C          63.2180   81.5842   12.1071 C.ar    1  UNL1        0.0313
     12 C          63.3730   82.8613   11.3358 C.ar    1  UNL1        0.0651
     13 C          64.1558   83.0363   10.0683 C.3     1  UNL1        0.0523
     14 C          63.5898   88.9657   12.8947 C.ar    1  UNL1        0.1005
     15 C          63.6552   88.8080   14.3849 C.ar    1  UNL1        0.0208
     16 C          64.2629   89.8899   15.2276 C.ar    1  UNL1        0.0045
     17 C          64.8052   91.1296   14.5800 C.ar    1  UNL1        0.0343
     18 C          64.7397   91.2872   13.0897 C.ar    1  UNL1        0.1318
     19 N          64.1320   90.2052   12.2471 N.ar    1  UNL1       -0.2292
     20 N          65.2820   92.5268   12.4421 N.pl3   1  UNL1       -0.2881
     21 C          65.0918   92.7488   10.9709 C.3     1  UNL1        0.1242
     22 C          65.6340   93.9884   10.3232 C.3     1  UNL1        0.1636
     23 O          66.3665   95.0059   11.1468 O.3     1  UNL1       -0.3501
     24 C          66.5566   94.7838   12.6181 C.3     1  UNL1        0.1636
     25 C          66.0144   93.5442   13.2657 C.3     1  UNL1        0.1242
     26 C          59.3422   89.0881    7.3586 C.3     1  UNL1        0.0950
     27 C          60.0667   88.7356    8.6238 C.2     1  UNL1        0.2277
     28 O          59.9327   89.6118    9.8339 O.2     1  UNL1       -0.2747
     29 N          60.9252   87.5068    8.6790 N.am    1  UNL1       -0.2692
     30 H          61.0132   86.9317    7.8847 H       1  UNL1        0.1563
@<TRIPOS>BOND
     1    26    27    1
     2    27    28    2
     3    27    29   am
     4    29     1    1
     5     1     2   ar
     6     2     3   ar
     7     3    14    1
     8    14    15   ar
     9    15    16   ar
    10    16    17   ar
    11    17    18   ar
    12    18    20    1
    13    20    21    1
    14    21    22    1
    15    22    23    1
    16    23    24    1
    17    24    25    1
    18    18    19   ar
    19     3     4   ar
    20     4     5   ar
    21     5     7    1
    22     7     8   ar
    23     8     9   ar
    24     9    10    1
    25     9    11   ar
    26    11    12   ar
    27    12    13    1
    28     5     6   ar
    29     6     1   ar
    30    19    14   ar
    31    12     7   ar
    32    25    20    1
    33    29    30    1
@<TRIPOS>MOLECULE
*****
 30 33 0 0 0
SMALL
GASTEIGER

@<TRIPOS>ATOM
      1 C          60.9132   87.4774   10.7439 C.ar    1  UNL1        0.1389
      2 C          61.6656   88.7737   10.8029 C.ar    1  UNL1        0.0553
      3 C          62.9091   88.8820   11.6347 C.ar    1  UNL1        0.1048
      4 N          63.4003   87.6940   12.4075 N.ar    1  UNL1       -0.2083
      5 C          62.6479   86.3977   12.3486 C.ar    1  UNL1        0.2539
      6 N          61.4044   86.2894   11.5168 N.ar    1  UNL1       -0.1948
      7 N          63.1391   85.2096   13.1214 N.ar    1  UNL1       -0.2008
      8 N          62.9078   83.7704   12.7673 N.ar    1  UNL1       -0.1673
      9 C          63.5735   82.9235   13.8111 C.ar    1  UNL1        0.0806
     10 C          63.5931   81.4241   13.8490 C.3     1  UNL1        0.0540
     11 C          64.2162   83.8392   14.8103 C.ar    1  UNL1        0.0313
     12 C          63.9477   85.2521   14.3841 C.ar    1  UNL1        0.0651
     13 C          64.4072   86.4900   15.0956 C.3     1  UNL1        0.0523
     14 C          63.6615   90.1784   11.6936 C.ar    1  UNL1        0.1005
     15 C          63.5086   91.1850   10.5920 C.ar    1  UNL1        0.0208
     16 C          64.2609   92.4813   10.6509 C.ar    1  UNL1        0.0045
     17 C          65.1662   92.7711   11.8114 C.ar    1  UNL1        0.0343
     18 C          65.3191   91.7645   12.9129 C.ar    1  UNL1        0.1318
     19 N          64.5667   90.4681   12.8540 N.ar    1  UNL1       -0.2292
     20 N          66.2243   92.0542   14.0733 N.pl3   1  UNL1       -0.2881
     21 C          65.6429   92.3127   15.4317 C.3     1  UNL1        0.1242
     22 C          66.5482   92.6024   16.5922 C.3     1  UNL1        0.1636
     23 O          68.0347   92.6337   16.3942 O.3     1  UNL1       -0.3501
     24 C          68.6160   92.3752   15.0358 C.3     1  UNL1        0.1636
     25 C          67.7108   92.0855   13.8754 C.3     1  UNL1        0.1242
     26 C          58.4963   86.6820    7.6983 C.3     1  UNL1        0.0950
     27 C          59.7399   86.7903    8.5301 C.2     1  UNL1        0.2277
     28 O          61.0536   86.3198    7.9798 O.2     1  UNL1       -0.2747
     29 N          59.6697   87.3691    9.9121 N.am    1  UNL1       -0.2692
     30 H          58.8075   87.6779   10.2732 H       1  UNL1        0.1563
@<TRIPOS>BOND
     1    26    27    1
     2    27    28    2
     3    27    29   am
     4    29     1    1
     5     1     2   ar
     6     2     3   ar
     7     3    14    1
     8    14    15   ar
     9    15    16   ar
    10    16    17   ar
    11    17    18   ar
    12    18    20    1
    13    20    21    1
    14    21    22    1
    15    22    23    1
    16    23    24    1
    17    24    25    1
    18    18    19   ar
    19     3     4   ar
    20     4     5   ar
    21     5     7    1
    22     7     8   ar
    23     8     9   ar
    24     9    10    1
    25     9    11   ar
    26    11    12   ar
    27    12    13    1
    28     5     6   ar
    29     6     1   ar
    30    19    14   ar
    31    12     7   ar
    32    25    20    1
    33    29    30    1
@<TRIPOS>MOLECULE
*****
 30 33 0 0 0
SMALL
GASTEIGER

@<TRIPOS>ATOM
      1 C          62.6517   89.8483   11.3482 C.ar    1  UNL1        0.1389
      2 C          62.6938   88.5287   12.0600 C.ar    1  UNL1        0.0553
      3 C          63.6466   88.3215   13.1999 C.ar    1  UNL1        0.1048
      4 N          64.5571   89.4339   13.6280 N.ar    1  UNL1       -0.2083
      5 C          64.5150   90.7535   12.9162 C.ar    1  UNL1        0.2539
      6 N          63.5623   90.9607   11.7763 N.ar    1  UNL1       -0.1948
      7 N          65.4256   91.8660   13.3443 N.ar    1  UNL1       -0.2008
      8 N          66.1274   91.9719   14.6658 N.ar    1  UNL1       -0.1673
      9 C          66.9298   93.2392   14.6643 C.ar    1  UNL1        0.0806
     10 C          67.7875   93.7410   15.7879 C.3     1  UNL1        0.0540
     11 C          66.7239   93.9166   13.3419 C.ar    1  UNL1        0.0313
     12 C          65.7943   93.0679   12.5261 C.ar    1  UNL1        0.0651
     13 C          65.3171   93.3685   11.1362 C.3     1  UNL1        0.0523
     14 C          63.6887   87.0017   13.9117 C.ar    1  UNL1        0.1005
     15 C          63.9601   86.9532   15.3861 C.ar    1  UNL1        0.0208
     16 C          64.0022   85.6335   16.0980 C.ar    1  UNL1        0.0045
     17 C          63.7729   84.3623   15.3353 C.ar    1  UNL1        0.0343
     18 C          63.5014   84.4109   13.8609 C.ar    1  UNL1        0.1318
     19 N          63.4593   85.7306   13.1491 N.ar    1  UNL1       -0.2292
     20 N          63.2721   83.1398   13.0983 N.pl3   1  UNL1       -0.2881
     21 C          63.6143   83.0682   11.6396 C.3     1  UNL1        0.1242
     22 C          63.3850   81.7970   10.8769 C.3     1  UNL1        0.1636
     23 O          62.8135   80.5975   11.5729 O.3     1  UNL1       -0.3501
     24 C          62.4713   80.6691   13.0317 C.3     1  UNL1        0.1636
     25 C          62.7006   81.9402   13.7943 C.3     1  UNL1        0.1242
     26 C          60.0719   89.0843    8.4308 C.3     1  UNL1        0.0950
     27 C          61.0246   88.8771    9.5707 C.2     1  UNL1        0.2277
     28 O          61.3030   87.4914   10.0731 O.2     1  UNL1       -0.2747
     29 N          61.6990   90.0555   10.2083 N.am    1  UNL1       -0.2692
     30 H          61.5163   90.9650    9.8785 H       1  UNL1        0.1563
@<TRIPOS>BOND
     1    26    27    1
     2    27    28    2
     3    27    29   am
     4    29     1    1
     5     1     2   ar
     6     2     3   ar
     7     3    14    1
     8    14    15   ar
     9    15    16   ar
    10    16    17   ar
    11    17    18   ar
    12    18    20    1
    13    20    21    1
    14    21    22    1
    15    22    23    1
    16    23    24    1
    17    24    25    1
    18    18    19   ar
    19     3     4   ar
    20     4     5   ar
    21     5     7    1
    22     7     8   ar
    23     8     9   ar
    24     9    10    1
    25     9    11   ar
    26    11    12   ar
    27    12    13    1
    28     5     6   ar
    29     6     1   ar
    30    19    14   ar
    31    12     7   ar
    32    25    20    1
    33    29    30    1
@<TRIPOS>MOLECULE
*****
 30 33 0 0 0
SMALL
GASTEIGER

@<TRIPOS>ATOM
      1 C          61.8217   88.4938   10.5602 C.ar    1  UNL1        0.1389
      2 C          62.3429   89.3664   11.6633 C.ar    1  UNL1        0.0553
      3 C          63.0628   88.7534   12.8278 C.ar    1  UNL1        0.1048
      4 N          63.2615   87.2679   12.8892 N.ar    1  UNL1       -0.2083
      5 C          62.7403   86.3954   11.7861 C.ar    1  UNL1        0.2539
      6 N          62.0204   87.0083   10.6216 N.ar    1  UNL1       -0.1948
      7 N          62.9389   84.9098   11.8474 N.ar    1  UNL1       -0.2008
      8 N          62.8415   84.0573   13.0778 N.ar    1  UNL1       -0.1673
      9 C          63.1123   82.6366   12.6800 C.ar    1  UNL1        0.0806
     10 C          63.1174   81.4499   13.5974 C.3     1  UNL1        0.0540
     11 C          63.3770   82.6111   11.2037 C.ar    1  UNL1        0.0313
     12 C          63.2698   84.0160   10.6892 C.ar    1  UNL1        0.0651
     13 C          63.4602   84.4506    9.2663 C.3     1  UNL1        0.0523
     14 C          63.5840   89.6261   13.9310 C.ar    1  UNL1        0.1005
     15 C          62.7518   89.8635   15.1562 C.ar    1  UNL1        0.0208
     16 C          63.2729   90.7361   16.2593 C.ar    1  UNL1        0.0045
     17 C          64.6263   91.3713   16.1373 C.ar    1  UNL1        0.0343
     18 C          65.4586   91.1339   14.9122 C.ar    1  UNL1        0.1318
     19 N          64.9373   90.2612   13.8090 N.ar    1  UNL1       -0.2292
     20 N          66.8119   91.7690   14.7901 N.pl3   1  UNL1       -0.2881
     21 C          67.6318   91.5554   13.5523 C.3     1  UNL1        0.1242
     22 C          68.9852   92.1906   13.4302 C.3     1  UNL1        0.1636
     23 O          69.5187   93.0394   14.5460 O.3     1  UNL1       -0.3501
     24 C          68.6988   93.2530   15.7838 C.3     1  UNL1        0.1636
     25 C          67.3454   92.6178   15.9059 C.3     1  UNL1        0.1242
     26 C          59.4201   88.8967    7.4266 C.3     1  UNL1        0.0950
     27 C          60.1399   88.2838    8.5911 C.2     1  UNL1        0.2277
     28 O          59.8979   86.8478    8.9510 O.2     1  UNL1       -0.2747
     29 N          61.1018   89.1067    9.3957 N.am    1  UNL1       -0.2692
     30 H          61.2607   90.0492    9.1595 H       1  UNL1        0.1563
@<TRIPOS>BOND
     1    26    27    1
     2    27    28    2
     3    27    29   am
     4    29     1    1
     5     1     2   ar
     6     2     3   ar
     7     3    14    1
     8    14    15   ar
     9    15    16   ar
    10    16    17   ar
    11    17    18   ar
    12    18    20    1
    13    20    21    1
    14    21    22    1
    15    22    23    1
    16    23    24    1
    17    24    25    1
    18    18    19   ar
    19     3     4   ar
    20     4     5   ar
    21     5     7    1
    22     7     8   ar
    23     8     9   ar
    24     9    10    1
    25     9    11   ar
    26    11    12   ar
    27    12    13    1
    28     5     6   ar
    29     6     1   ar
    30    19    14   ar
    31    12     7   ar
    32    25    20    1
    33    29    30    1
