@<TRIPOS>MOLECULE
*****
 23 25 0 0 0
SMALL
GASTEIGER

@<TRIPOS>ATOM
      1 C          62.3309   85.7397    9.8837 C.ar    1  UNL1        0.0000
      2 C          63.1887   85.0563    8.8604 C.ar    1  UNL1        0.0000
      3 C          63.9026   83.7840    9.2091 C.ar    1  UNL1       -0.0000
      4 C          63.7588   83.1951   10.5812 C.ar    1  UNL1       -0.0002
      5 C          62.9010   83.8785   11.6045 C.ar    1  UNL1        0.0008
      6 C          62.1871   85.1508   11.2558 C.ar    1  UNL1       -0.0002
      7 N          58.6792   88.2529    7.1729 N.pl3   1  UNL1       -0.3570
      8 C          59.7911   88.2686    8.1796 C.ar    1  UNL1        0.0415
      9 C          60.1890   89.5565    8.8376 C.ar    1  UNL1        0.0141
     10 C          61.3009   89.5721    9.8443 C.ar    1  UNL1        0.0013
     11 C          62.0149   88.2999   10.1930 C.ar    1  UNL1        0.0001
     12 C          61.6169   87.0120    9.5350 C.ar    1  UNL1        0.0012
     13 C          60.5050   86.9964    8.5283 C.ar    1  UNL1        0.0141
     14 H          58.2106   89.0880    6.9441 H       1  UNL1        0.1424
     15 H          58.4180   87.4076    6.7411 H       1  UNL1        0.1424
     16 C          62.7571   83.2897   12.9766 C.2     1  UNL1        0.0375
     17 C          62.3088   81.8940   13.2945 C.2     1  UNL1        0.1208
     18 N          62.3109   81.7348   14.7860 N.2     1  UNL1       -0.1497
     19 N          62.7606   83.0321   15.3899 N.2     1  UNL1       -0.1554
     20 C          63.0364   83.9930   14.2717 C.3     1  UNL1        0.2029
     21 N          63.5085   85.4088   14.4221 N.3     1  UNL1       -0.2983
     22 H          64.2396   85.6202   15.0467 H       1  UNL1        0.1209
     23 H          63.0874   86.1267   13.8962 H       1  UNL1        0.1209
@<TRIPOS>BOND
     1     7     8    1
     2     8     9   ar
     3     9    10   ar
     4    10    11   ar
     5    11    12   ar
     6    12     1    1
     7     1     2   ar
     8     2     3   ar
     9     3     4   ar
    10     4     5   ar
    11     5    16    1
    12    16    17    2
    13    17    18    1
    14    18    19    2
    15    19    20    1
    16    20    21    1
    17     5     6   ar
    18    12    13   ar
    19    13     8   ar
    20     6     1   ar
    21    20    16    1
    22     7    14    1
    23     7    15    1
    24    21    22    1
    25    21    23    1
@<TRIPOS>MOLECULE
*****
 23 25 0 0 0
SMALL
GASTEIGER

@<TRIPOS>ATOM
      1 C          62.1971   85.5086    9.7844 C.ar    1  UNL1        0.0000
      2 C          63.1139   84.7153    8.9013 C.ar    1  UNL1        0.0000
      3 C          64.0215   83.6811    9.4986 C.ar    1  UNL1       -0.0000
      4 C          64.0122   83.4403   10.9791 C.ar    1  UNL1       -0.0002
      5 C          63.0953   84.2337   11.8623 C.ar    1  UNL1        0.0008
      6 C          62.1877   85.2678   11.2649 C.ar    1  UNL1       -0.0002
      7 N          60.3854   90.3773    9.6661 N.pl3   1  UNL1       -0.3570
      8 C          60.3837   88.9772    9.1279 C.ar    1  UNL1        0.0415
      9 C          59.4744   88.6112    7.9925 C.ar    1  UNL1        0.0141
     10 C          59.4726   87.2111    7.4544 C.ar    1  UNL1        0.0013
     11 C          60.3802   86.1769    8.0516 C.ar    1  UNL1        0.0001
     12 C          61.2894   86.5428    9.1871 C.ar    1  UNL1        0.0012
     13 C          61.2912   87.9430    9.7252 C.ar    1  UNL1        0.0141
     14 H          59.7897   91.0561    9.2740 H       1  UNL1        0.1424
     15 H          60.9822   90.6175   10.4113 H       1  UNL1        0.1424
     16 C          63.0860   83.9928   13.3428 C.2     1  UNL1        0.0375
     17 C          62.6864   82.7189   14.0264 C.2     1  UNL1        0.1208
     18 N          62.8281   82.9224   15.5057 N.2     1  UNL1       -0.1497
     19 N          63.3152   84.3221   15.7365 N.2     1  UNL1       -0.1554
     20 C          63.4746   84.9837   14.3997 C.3     1  UNL1        0.2029
     21 N          63.9408   86.3894   14.1617 N.3     1  UNL1       -0.2983
     22 H          64.7236   86.7372   14.6470 H       1  UNL1        0.1209
     23 H          63.4640   86.9642   13.5202 H       1  UNL1        0.1209
@<TRIPOS>BOND
     1     7     8    1
     2     8     9   ar
     3     9    10   ar
     4    10    11   ar
     5    11    12   ar
     6    12     1    1
     7     1     2   ar
     8     2     3   ar
     9     3     4   ar
    10     4     5   ar
    11     5    16    1
    12    16    17    2
    13    17    18    1
    14    18    19    2
    15    19    20    1
    16    20    21    1
    17     5     6   ar
    18    12    13   ar
    19    13     8   ar
    20     6     1   ar
    21    20    16    1
    22     7    14    1
    23     7    15    1
    24    21    22    1
    25    21    23    1
@<TRIPOS>MOLECULE
*****
 23 25 0 0 0
SMALL
GASTEIGER

@<TRIPOS>ATOM
      1 C          62.7200   84.3642   10.8118 C.ar    1  UNL1        0.0000
      2 C          63.2613   84.0938    9.4393 C.ar    1  UNL1        0.0000
      3 C          63.2064   85.1620    8.3875 C.ar    1  UNL1       -0.0000
      4 C          62.6101   86.5004    8.7084 C.ar    1  UNL1       -0.0002
      5 C          62.0688   86.7708   10.0810 C.ar    1  UNL1        0.0008
      6 C          62.1237   85.7026   11.1326 C.ar    1  UNL1       -0.0002
      7 N          62.7667   82.9778   15.8194 N.pl3   1  UNL1       -0.3570
      8 C          62.7982   82.6029   14.3673 C.ar    1  UNL1        0.0415
      9 C          62.8847   81.1599   13.9670 C.ar    1  UNL1        0.0141
     10 C          62.9163   80.7850   12.5150 C.ar    1  UNL1        0.0013
     11 C          62.8614   81.8530   11.4632 C.ar    1  UNL1        0.0001
     12 C          62.7749   83.2960   11.8636 C.ar    1  UNL1        0.0012
     13 C          62.7433   83.6709   13.3156 C.ar    1  UNL1        0.0141
     14 H          62.8027   82.2767   16.5097 H       1  UNL1        0.1424
     15 H          62.7099   83.9249   16.0821 H       1  UNL1        0.1424
     16 C          61.4725   88.1092   10.4018 C.2     1  UNL1        0.0375
     17 C          60.3002   88.7406    9.7112 C.2     1  UNL1        0.1208
     18 N          60.0470   90.0730   10.3522 N.2     1  UNL1       -0.1497
     19 N          61.0628   90.2650   11.4390 N.2     1  UNL1       -0.1554
     20 C          61.9438   89.0514   11.4696 C.3     1  UNL1        0.2029
     21 N          63.0942   88.8204   12.4041 N.3     1  UNL1       -0.2983
     22 H          62.9953   89.0150   13.3641 H       1  UNL1        0.1209
     23 H          63.9482   88.4743   12.0574 H       1  UNL1        0.1209
@<TRIPOS>BOND
     1     7     8    1
     2     8     9   ar
     3     9    10   ar
     4    10    11   ar
     5    11    12   ar
     6    12     1    1
     7     1     2   ar
     8     2     3   ar
     9     3     4   ar
    10     4     5   ar
    11     5    16    1
    12    16    17    2
    13    17    18    1
    14    18    19    2
    15    19    20    1
    16    20    21    1
    17     5     6   ar
    18    12    13   ar
    19    13     8   ar
    20     6     1   ar
    21    20    16    1
    22     7    14    1
    23     7    15    1
    24    21    22    1
    25    21    23    1
@<TRIPOS>MOLECULE
*****
 23 25 0 0 0
SMALL
GASTEIGER

@<TRIPOS>ATOM
      1 C          62.8730   84.5352   11.1923 C.ar    1  UNL1        0.0000
      2 C          63.7070   83.8431   10.1553 C.ar    1  UNL1        0.0000
      3 C          63.6396   84.2827    8.7227 C.ar    1  UNL1       -0.0000
      4 C          62.7381   85.4145    8.3272 C.ar    1  UNL1       -0.0002
      5 C          61.9041   86.1067    9.3642 C.ar    1  UNL1        0.0008
      6 C          61.9716   85.6670   10.7967 C.ar    1  UNL1       -0.0002
      7 N          64.1921   85.4732   16.1299 N.pl3   1  UNL1       -0.3570
      8 C          63.5999   84.5646   15.0936 C.ar    1  UNL1        0.0415
      9 C          63.0752   83.2164   15.4899 C.ar    1  UNL1        0.0141
     10 C          62.4831   82.3078   14.4536 C.ar    1  UNL1        0.0013
     11 C          62.4157   82.7474   13.0211 C.ar    1  UNL1        0.0001
     12 C          62.9404   84.0956   12.6248 C.ar    1  UNL1        0.0012
     13 C          63.5325   85.0042   13.6611 C.ar    1  UNL1        0.0141
     14 H          64.2363   85.1847   17.0701 H       1  UNL1        0.1424
     15 H          64.5364   86.3581   15.8698 H       1  UNL1        0.1424
     16 C          61.0027   87.2385    8.9687 C.2     1  UNL1        0.0375
     17 C          61.1204   88.6614    9.4285 C.2     1  UNL1        0.1208
     18 N          60.0157   89.4485    8.7879 N.2     1  UNL1       -0.1497
     19 N          59.2153   88.5119    7.9321 N.2     1  UNL1       -0.1554
     20 C          59.8253   87.1461    8.0439 C.3     1  UNL1        0.2029
     21 N          59.3426   85.9057    7.3523 N.3     1  UNL1       -0.2983
     22 H          59.1032   85.9358    6.3978 H       1  UNL1        0.1209
     23 H          59.2652   85.0615    7.8528 H       1  UNL1        0.1209
@<TRIPOS>BOND
     1     7     8    1
     2     8     9   ar
     3     9    10   ar
     4    10    11   ar
     5    11    12   ar
     6    12     1    1
     7     1     2   ar
     8     2     3   ar
     9     3     4   ar
    10     4     5   ar
    11     5    16    1
    12    16    17    2
    13    17    18    1
    14    18    19    2
    15    19    20    1
    16    20    21    1
    17     5     6   ar
    18    12    13   ar
    19    13     8   ar
    20     6     1   ar
    21    20    16    1
    22     7    14    1
    23     7    15    1
    24    21    22    1
    25    21    23    1
@<TRIPOS>MOLECULE
*****
 23 25 0 0 0
SMALL
GASTEIGER

@<TRIPOS>ATOM
      1 C          62.3315   86.9020   11.5509 C.ar    1  UNL1        0.0000
      2 C          63.0894   87.9011   12.3739 C.ar    1  UNL1        0.0000
      3 C          63.9194   87.4406   13.5355 C.ar    1  UNL1       -0.0000
      4 C          63.9914   85.9811   13.8740 C.ar    1  UNL1       -0.0002
      5 C          63.2334   84.9820   13.0510 C.ar    1  UNL1        0.0008
      6 C          62.4035   85.4424   11.8894 C.ar    1  UNL1       -0.0002
      7 N          59.4517   85.8119    7.3654 N.pl3   1  UNL1       -0.3570
      8 C          60.0616   86.8173    8.2966 C.ar    1  UNL1        0.0415
      9 C          59.8416   88.2830    8.0662 C.ar    1  UNL1        0.0141
     10 C          60.4515   89.2885    8.9974 C.ar    1  UNL1        0.0013
     11 C          61.2815   88.8281   10.1590 C.ar    1  UNL1        0.0001
     12 C          61.5015   87.3624   10.3893 C.ar    1  UNL1        0.0012
     13 C          60.8916   86.3570    9.4581 C.ar    1  UNL1        0.0141
     14 H          58.9070   86.1140    6.6030 H       1  UNL1        0.1424
     15 H          59.5962   84.8498    7.5166 H       1  UNL1        0.1424
     16 C          63.3055   83.5225   13.3895 C.2     1  UNL1        0.0375
     17 C          62.5905   82.8432   14.5197 C.2     1  UNL1        0.1208
     18 N          62.9483   81.3869   14.4860 N.2     1  UNL1       -0.1497
     19 N          63.8844   81.1661   13.3349 N.2     1  UNL1       -0.1554
     20 C          64.1051   82.4860   12.6573 C.3     1  UNL1        0.2029
     21 N          64.9732   82.7270   11.4579 N.3     1  UNL1       -0.2983
     22 H          64.9284   82.1161   10.6871 H       1  UNL1        0.1209
     23 H          65.5876   83.4960   11.4415 H       1  UNL1        0.1209
@<TRIPOS>BOND
     1     7     8    1
     2     8     9   ar
     3     9    10   ar
     4    10    11   ar
     5    11    12   ar
     6    12     1    1
     7     1     2   ar
     8     2     3   ar
     9     3     4   ar
    10     4     5   ar
    11     5    16    1
    12    16    17    2
    13    17    18    1
    14    18    19    2
    15    19    20    1
    16    20    21    1
    17     5     6   ar
    18    12    13   ar
    19    13     8   ar
    20     6     1   ar
    21    20    16    1
    22     7    14    1
    23     7    15    1
    24    21    22    1
    25    21    23    1
@<TRIPOS>MOLECULE
*****
 23 25 0 0 0
SMALL
GASTEIGER

@<TRIPOS>ATOM
      1 C          63.6135   90.8995   12.0247 C.ar    1  UNL1        0.0000
      2 C          63.9397   90.6955   13.4745 C.ar    1  UNL1        0.0000
      3 C          65.1488   91.3532   14.0710 C.ar    1  UNL1       -0.0000
      4 C          66.0315   92.2149   13.2176 C.ar    1  UNL1       -0.0002
      5 C          65.7052   92.4188   11.7677 C.ar    1  UNL1        0.0008
      6 C          64.4962   91.7611   11.1713 C.ar    1  UNL1       -0.0002
      7 N          58.9348   88.7138   12.6016 N.pl3   1  UNL1       -0.3570
      8 C          60.0651   89.1489   11.7167 C.ar    1  UNL1        0.0415
      9 C          59.9864   88.9264   10.2354 C.ar    1  UNL1        0.0141
     10 C          61.1168   89.3615    9.3506 C.ar    1  UNL1        0.0013
     11 C          62.3258   90.0192    9.9470 C.ar    1  UNL1        0.0001
     12 C          62.4044   90.2417   11.4282 C.ar    1  UNL1        0.0012
     13 C          61.2741   89.8066   12.3131 C.ar    1  UNL1        0.0141
     14 H          58.1413   88.2821   12.2102 H       1  UNL1        0.1424
     15 H          58.9864   88.8599   13.5738 H       1  UNL1        0.1424
     16 C          66.5880   93.2805   10.9143 C.2     1  UNL1        0.0375
     17 C          67.6273   92.7940    9.9484 C.2     1  UNL1        0.1208
     18 N          68.2681   93.9928    9.3141 N.2     1  UNL1       -0.1497
     19 N          67.6247   95.2203    9.8880 N.2     1  UNL1       -0.1554
     20 C          66.5863   94.7800   10.8770 C.3     1  UNL1        0.2029
     21 N          65.7017   95.6812   11.6865 N.3     1  UNL1       -0.2983
     22 H          65.2522   96.4448   11.2574 H       1  UNL1        0.1209
     23 H          65.5705   95.5091   12.6469 H       1  UNL1        0.1209
@<TRIPOS>BOND
     1     7     8    1
     2     8     9   ar
     3     9    10   ar
     4    10    11   ar
     5    11    12   ar
     6    12     1    1
     7     1     2   ar
     8     2     3   ar
     9     3     4   ar
    10     4     5   ar
    11     5    16    1
    12    16    17    2
    13    17    18    1
    14    18    19    2
    15    19    20    1
    16    20    21    1
    17     5     6   ar
    18    12    13   ar
    19    13     8   ar
    20     6     1   ar
    21    20    16    1
    22     7    14    1
    23     7    15    1
    24    21    22    1
    25    21    23    1
@<TRIPOS>MOLECULE
*****
 23 25 0 0 0
SMALL
GASTEIGER

@<TRIPOS>ATOM
      1 C          62.6784   86.6128   11.7263 C.ar    1  UNL1        0.0000
      2 C          61.9629   86.9875   10.4624 C.ar    1  UNL1        0.0000
      3 C          61.8349   88.4304   10.0726 C.ar    1  UNL1       -0.0000
      4 C          62.4225   89.4984   10.9467 C.ar    1  UNL1       -0.0002
      5 C          63.1380   89.1236   12.2107 C.ar    1  UNL1        0.0008
      6 C          63.2660   87.6808   12.6005 C.ar    1  UNL1       -0.0002
      7 N          62.7806   82.9348   15.3954 N.pl3   1  UNL1       -0.3570
      8 C          62.8575   83.3310   13.9507 C.ar    1  UNL1        0.0415
      9 C          63.0624   82.2844   12.8959 C.ar    1  UNL1        0.0141
     10 C          63.1393   82.6806   11.4512 C.ar    1  UNL1        0.0013
     11 C          63.0113   84.1234   11.0613 C.ar    1  UNL1        0.0001
     12 C          62.8064   85.1699   12.1161 C.ar    1  UNL1        0.0012
     13 C          62.7295   84.7737   13.5608 C.ar    1  UNL1        0.0141
     14 H          62.8646   81.9878   15.6512 H       1  UNL1        0.1424
     15 H          62.6461   83.6217   16.0877 H       1  UNL1        0.1424
     16 C          63.7255   90.1916   13.0849 C.2     1  UNL1        0.0375
     17 C          64.6743   91.2673   12.6459 C.2     1  UNL1        0.1208
     18 N          65.0026   92.1119   13.8412 N.2     1  UNL1       -0.1497
     19 N          64.2567   91.5583   15.0190 N.2     1  UNL1       -0.1554
     20 C          63.4675   90.3714   14.5515 C.3     1  UNL1        0.2029
     21 N          62.5766   89.5148   15.4015 N.3     1  UNL1       -0.2983
     22 H          61.9463   89.9334   16.0314 H       1  UNL1        0.1209
     23 H          62.6221   88.5340   15.3295 H       1  UNL1        0.1209
@<TRIPOS>BOND
     1     7     8    1
     2     8     9   ar
     3     9    10   ar
     4    10    11   ar
     5    11    12   ar
     6    12     1    1
     7     1     2   ar
     8     2     3   ar
     9     3     4   ar
    10     4     5   ar
    11     5    16    1
    12    16    17    2
    13    17    18    1
    14    18    19    2
    15    19    20    1
    16    20    21    1
    17     5     6   ar
    18    12    13   ar
    19    13     8   ar
    20     6     1   ar
    21    20    16    1
    22     7    14    1
    23     7    15    1
    24    21    22    1
    25    21    23    1
@<TRIPOS>MOLECULE
*****
 23 25 0 0 0
SMALL
GASTEIGER

@<TRIPOS>ATOM
      1 C          62.8224   84.5823   11.0583 C.ar    1  UNL1        0.0000
      2 C          63.7001   83.9115   10.0436 C.ar    1  UNL1        0.0000
      3 C          63.6251   84.3175    8.6015 C.ar    1  UNL1       -0.0000
      4 C          62.6722   85.3942    8.1741 C.ar    1  UNL1       -0.0002
      5 C          61.7944   86.0650    9.1888 C.ar    1  UNL1        0.0008
      6 C          61.8695   85.6590   10.6309 C.ar    1  UNL1       -0.0002
      7 N          62.1403   81.0089   14.7686 N.pl3   1  UNL1       -0.3570
      8 C          62.5564   82.3896   14.3555 C.ar    1  UNL1        0.0415
      9 C          63.0475   83.3643   15.3844 C.ar    1  UNL1        0.0141
     10 C          63.4635   84.7450   14.9713 C.ar    1  UNL1        0.0013
     11 C          63.3885   85.1510   13.5293 C.ar    1  UNL1        0.0001
     12 C          62.8974   84.1763   12.5004 C.ar    1  UNL1        0.0012
     13 C          62.4813   82.7956   12.9135 C.ar    1  UNL1        0.0141
     14 H          62.1895   80.7425   15.7150 H       1  UNL1        0.1424
     15 H          61.8180   80.3692   14.0932 H       1  UNL1        0.1424
     16 C          60.8416   87.1418    8.7615 C.2     1  UNL1        0.0375
     17 C          59.6666   86.9668    7.8456 C.2     1  UNL1        0.1208
     18 N          58.9952   88.2994    7.6930 N.2     1  UNL1       -0.1497
     19 N          59.7553   89.2981    8.5146 N.2     1  UNL1       -0.1554
     20 C          60.8963   88.5826    9.1749 C.3     1  UNL1        0.2029
     21 N          61.9136   89.1997   10.0883 N.3     1  UNL1       -0.2983
     22 H          61.6258   89.8117   10.8038 H       1  UNL1        0.1209
     23 H          62.8691   88.9928    9.9723 H       1  UNL1        0.1209
@<TRIPOS>BOND
     1     7     8    1
     2     8     9   ar
     3     9    10   ar
     4    10    11   ar
     5    11    12   ar
     6    12     1    1
     7     1     2   ar
     8     2     3   ar
     9     3     4   ar
    10     4     5   ar
    11     5    16    1
    12    16    17    2
    13    17    18    1
    14    18    19    2
    15    19    20    1
    16    20    21    1
    17     5     6   ar
    18    12    13   ar
    19    13     8   ar
    20     6     1   ar
    21    20    16    1
    22     7    14    1
    23     7    15    1
    24    21    22    1
    25    21    23    1
@<TRIPOS>MOLECULE
*****
 23 25 0 0 0
SMALL
GASTEIGER

@<TRIPOS>ATOM
      1 C          64.0960   89.1243   14.8938 C.ar    1  UNL1        0.0000
      2 C          63.5395   89.4372   16.2511 C.ar    1  UNL1        0.0000
      3 C          63.0751   88.3263   17.1457 C.ar    1  UNL1       -0.0000
      4 C          63.1672   86.9024   16.6829 C.ar    1  UNL1       -0.0002
      5 C          63.7238   86.5895   15.3255 C.ar    1  UNL1        0.0008
      6 C          64.1882   87.7004   14.4310 C.ar    1  UNL1       -0.0002
      7 N          67.4250   92.9785   13.8629 N.pl3   1  UNL1       -0.3570
      8 C          66.2250   92.1623   13.4838 C.ar    1  UNL1        0.0415
      9 C          65.4894   92.4570   12.2102 C.ar    1  UNL1        0.0141
     10 C          64.2893   91.6408   11.8312 C.ar    1  UNL1        0.0013
     11 C          63.8249   90.5299   12.7257 C.ar    1  UNL1        0.0001
     12 C          64.5605   90.2352   13.9992 C.ar    1  UNL1        0.0012
     13 C          65.7605   91.0514   14.3783 C.ar    1  UNL1        0.0141
     14 H          67.7298   93.7076   13.2758 H       1  UNL1        0.1424
     15 H          67.9078   92.7851   14.6988 H       1  UNL1        0.1424
     16 C          63.8159   85.1657   14.8627 C.2     1  UNL1        0.0375
     17 C          62.6633   84.2258   14.6671 C.2     1  UNL1        0.1208
     18 N          63.2119   82.9110   14.1977 N.2     1  UNL1       -0.1497
     19 N          64.7035   83.0382   14.1033 N.2     1  UNL1       -0.1554
     20 C          65.0768   84.4316   14.5143 C.3     1  UNL1        0.2029
     21 N          66.4669   84.9926   14.5675 N.3     1  UNL1       -0.2983
     22 H          67.0903   84.8346   13.8221 H       1  UNL1        0.1209
     23 H          66.7559   85.5188   15.3478 H       1  UNL1        0.1209
@<TRIPOS>BOND
     1     7     8    1
     2     8     9   ar
     3     9    10   ar
     4    10    11   ar
     5    11    12   ar
     6    12     1    1
     7     1     2   ar
     8     2     3   ar
     9     3     4   ar
    10     4     5   ar
    11     5    16    1
    12    16    17    2
    13    17    18    1
    14    18    19    2
    15    19    20    1
    16    20    21    1
    17     5     6   ar
    18    12    13   ar
    19    13     8   ar
    20     6     1   ar
    21    20    16    1
    22     7    14    1
    23     7    15    1
    24    21    22    1
    25    21    23    1
