@<TRIPOS>MOLECULE
*****
 59 65 0 0 0
SMALL
GASTEIGER

@<TRIPOS>ATOM
      1 N          65.3627   89.2489   14.4872 N.3     1  UNL1       -0.1862
      2 C          65.5679   87.9947   15.2840 C.3     1  UNL1        0.1775
      3 C          64.7752   86.7629   14.9612 C.2     1  UNL1        0.2452
      4 O          64.9805   85.5087   15.7581 O.2     1  UNL1       -0.2732
      5 N          63.7772   86.7852   13.8416 N.am    1  UNL1       -0.2541
      6 C          62.9845   85.5534   13.5188 C.3     1  UNL1        0.1577
      7 C          61.9865   85.5757   12.3993 C.2     1  UNL1        0.2445
      8 O          61.1938   84.3439   12.0765 O.2     1  UNL1       -0.2731
      9 N          61.7812   86.8299   11.6024 N.am    1  UNL1       -0.2705
     10 C          62.5739   88.0618   11.9252 C.3     1  UNL1        0.1359
     11 C          63.5719   88.0394   13.0449 C.3     1  UNL1        0.1908
     12 N          64.3647   89.2712   13.3677 N.am    1  UNL1       -0.1863
     13 C          64.1594   90.5254   12.5708 C.2     1  UNL1        0.3191
     14 O          63.1614   90.5478   11.4513 O.2     1  UNL1       -0.2512
     15 N          64.9521   91.7572   12.8936 N.am    1  UNL1       -0.2836
     16 H          65.6071   91.7426   13.6284 H       1  UNL1        0.1513
     17 C          66.1554   90.4807   14.8100 C.3     1  UNL1        0.1188
     18 C          66.3914   92.7202   16.1057 C.2     1  UNL1       -0.0034
     19 C          65.5526   91.5589   15.6609 C.2     1  UNL1       -0.0071
     20 C          63.1897   84.2992   14.3156 C.3     1  UNL1        0.0556
     21 C          63.0472   82.9597   13.6558 C.ar    1  UNL1       -0.0198
     22 C          62.1089   81.9383   14.2271 C.ar    1  UNL1       -0.0011
     23 C          61.9663   80.5988   13.5673 C.ar    1  UNL1        0.0363
     24 C          62.7620   80.2807   12.3362 C.ar    1  UNL1        0.1337
     25 O          62.6194   78.9411   11.6764 O.3     1  UNL1       -0.5055
     26 C          63.7004   81.3020   11.7649 C.ar    1  UNL1        0.0363
     27 C          63.8429   82.6416   12.4247 C.ar    1  UNL1       -0.0011
     28 H          62.0333   78.3031   12.0332 H       1  UNL1        0.2922
     29 C          60.7832   86.8523   10.4829 C.3     1  UNL1        0.1217
     30 C          60.3782   88.1578    9.8650 C.ar    1  UNL1        0.0135
     31 C          60.0947   89.3445   10.7376 C.ar    1  UNL1       -0.0012
     32 C          59.6897   90.6500   10.1198 C.ar    1  UNL1       -0.0002
     33 C          59.5684   90.7688    8.6295 C.ar    1  UNL1        0.0016
     34 C          59.8519   89.5821    7.7569 C.ar    1  UNL1        0.0214
     35 C          59.8158   89.3992    6.2686 C.ar    1  UNL1        0.0722
     36 C          60.1985   87.9806    5.9665 C.ar    1  UNL1        0.0805
     37 N          60.4710   87.2869    7.2681 N.ar    1  UNL1       -0.3241
     38 C          60.8851   85.8548    7.4341 C.3     1  UNL1        0.1305
     39 C          60.2569   88.2766    8.3747 C.ar    1  UNL1        0.0577
     40 C          59.4596   90.4503    5.2594 C.2     1  UNL1        0.2510
     41 O          58.0236   90.8249    5.0417 O.2     1  UNL1       -0.2698
     42 N          60.5395   91.1268    4.4680 N.am    1  UNL1       -0.2791
     43 H          61.4820   90.8809    4.6110 H       1  UNL1        0.1552
     44 C          60.1834   92.1779    3.4589 C.ar    1  UNL1        0.0701
     45 C          59.8658   91.7846    2.0467 C.ar    1  UNL1        0.0191
     46 C          59.5096   92.8356    1.0375 C.ar    1  UNL1        0.0356
     47 C          59.4711   94.2799    1.4406 C.ar    1  UNL1        0.1319
     48 N          59.7887   94.6732    2.8528 N.ar    1  UNL1       -0.2279
     49 C          60.1448   93.6222    3.8620 C.ar    1  UNL1        0.1149
     50 N          59.1150   95.3310    0.4315 N.pl3   1  UNL1       -0.2897
     51 C          59.4821   96.7641    0.6797 C.3     1  UNL1        0.1136
     52 C          58.3917   94.9492   -0.8259 C.3     1  UNL1        0.1136
     53 C          64.7469   93.0114   12.0968 C.3     1  UNL1        0.1177
     54 C          65.7885   93.4532   11.1120 C.ar    1  UNL1       -0.0025
     55 C          65.8235   94.8786   10.6462 C.ar    1  UNL1       -0.0026
     56 C          66.8651   95.3204    9.6614 C.ar    1  UNL1       -0.0003
     57 C          67.8716   94.3369    9.1424 C.ar    1  UNL1       -0.0000
     58 C          67.8367   92.9114    9.6082 C.ar    1  UNL1       -0.0003
     59 C          66.7951   92.4696   10.5930 C.ar    1  UNL1       -0.0026
@<TRIPOS>BOND
     1    18    19    2
     2    19    17    1
     3    17     1    1
     4     1     2    1
     5     2     3    1
     6     3     4    2
     7     3     5   am
     8     5     6    1
     9     6    20    1
    10    20    21    1
    11    21    22   ar
    12    22    23   ar
    13    23    24   ar
    14    24    25    1
    15    24    26   ar
    16    26    27   ar
    17     6     7    1
    18     7     8    2
    19     7     9   am
    20     9    29    1
    21    29    30    1
    22    30    31   ar
    23    31    32   ar
    24    32    33   ar
    25    33    34   ar
    26    34    35   ar
    27    35    40    1
    28    40    41    2
    29    40    42   am
    30    42    44    1
    31    44    45   ar
    32    45    46   ar
    33    46    47   ar
    34    47    50    1
    35    50    51    1
    36    50    52    1
    37    47    48   ar
    38    48    49   ar
    39    35    36   ar
    40    36    37   ar
    41    37    38    1
    42    37    39   ar
    43     9    10    1
    44    11    10    1
    45    11    12    1
    46    12    13   am
    47    13    14    2
    48    13    15   am
    49    15    53    1
    50    53    54    1
    51    54    55   ar
    52    55    56   ar
    53    56    57   ar
    54    57    58   ar
    55    58    59   ar
    56    12     1    1
    57    59    54   ar
    58    11     5    1
    59    27    21   ar
    60    39    30   ar
    61    39    34   ar
    62    49    44   ar
    63    25    28    1
    64    42    43    1
    65    15    16    1
@<TRIPOS>MOLECULE
*****
 59 65 0 0 0
SMALL
GASTEIGER

@<TRIPOS>ATOM
      1 N          65.7264   89.8993   13.9805 N.3     1  UNL1       -0.1862
      2 C          66.1510   88.7239   14.8100 C.3     1  UNL1        0.1775
      3 C          65.3456   87.4587   14.7856 C.2     1  UNL1        0.2452
      4 O          65.7702   86.2832   15.6151 O.2     1  UNL1       -0.2732
      5 N          64.1156   87.3689   13.9318 N.am    1  UNL1       -0.2541
      6 C          63.3102   86.1037   13.9074 C.3     1  UNL1        0.1577
      7 C          62.0802   86.0139   13.0536 C.2     1  UNL1        0.2445
      8 O          61.2748   84.7487   13.0292 O.2     1  UNL1       -0.2731
      9 N          61.6556   87.1894   12.2241 N.am    1  UNL1       -0.2705
     10 C          62.4610   88.4546   12.2485 C.3     1  UNL1        0.1359
     11 C          63.6910   88.5443   13.1024 C.3     1  UNL1        0.1908
     12 N          64.4964   89.8095   13.1267 N.am    1  UNL1       -0.1863
     13 C          64.0717   90.9850   12.2972 C.2     1  UNL1        0.3191
     14 O          62.8417   90.8953   11.4434 O.2     1  UNL1       -0.2512
     15 N          64.8771   92.2502   12.3216 N.am    1  UNL1       -0.2836
     16 H          65.6844   92.3091   12.8820 H       1  UNL1        0.1513
     17 C          66.5318   91.1645   14.0049 C.3     1  UNL1        0.1188
     18 C          68.1074   92.2108   15.7861 C.2     1  UNL1       -0.0034
     19 C          66.7233   91.9069   15.2941 C.2     1  UNL1       -0.0071
     20 C          63.7348   84.9282   14.7368 C.3     1  UNL1        0.0556
     21 C          63.4260   83.5345   14.2762 C.ar    1  UNL1       -0.0198
     22 C          62.2666   82.7888   14.8675 C.ar    1  UNL1       -0.0011
     23 C          61.9578   81.3951   14.4068 C.ar    1  UNL1        0.0363
     24 C          62.8083   80.7471   13.3548 C.ar    1  UNL1        0.1337
     25 O          62.4995   79.3534   12.8941 O.3     1  UNL1       -0.5055
     26 C          63.9677   81.4929   12.7634 C.ar    1  UNL1        0.0363
     27 C          64.2766   82.8866   13.2241 C.ar    1  UNL1       -0.0011
     28 H          61.7752   78.8876   13.2635 H       1  UNL1        0.2922
     29 C          60.4256   87.0996   11.3703 C.3     1  UNL1        0.1217
     30 C          60.5425   87.1723    9.8766 C.ar    1  UNL1        0.0135
     31 C          61.0026   85.9735    9.1011 C.ar    1  UNL1       -0.0012
     32 C          61.1195   86.0461    7.6075 C.ar    1  UNL1       -0.0002
     33 C          60.7763   87.3175    6.8893 C.ar    1  UNL1        0.0016
     34 C          60.3162   88.5162    7.6647 C.ar    1  UNL1        0.0214
     35 C          59.9113   89.8950    7.2346 C.ar    1  UNL1        0.0722
     36 C          59.5441   90.6744    8.4624 C.ar    1  UNL1        0.0805
     37 N          59.7221   89.7775    9.6513 N.ar    1  UNL1       -0.3241
     38 C          59.4676   90.1491   11.0821 C.3     1  UNL1        0.1305
     39 C          60.1993   88.4436    9.1584 C.ar    1  UNL1        0.0577
     40 C          59.8791   90.4047    5.8241 C.2     1  UNL1        0.2510
     41 O          58.7022   90.1034    4.9444 O.2     1  UNL1       -0.2698
     42 N          61.0239   91.2158    5.2936 N.am    1  UNL1       -0.2791
     43 H          61.7964   91.4136    5.8710 H       1  UNL1        0.1552
     44 C          60.9919   91.7256    3.8832 C.ar    1  UNL1        0.0701
     45 C          62.1963   91.5713    3.0025 C.ar    1  UNL1        0.0191
     46 C          62.1643   92.0810    1.5922 C.ar    1  UNL1        0.0356
     47 C          60.9280   92.7451    1.0625 C.ar    1  UNL1        0.1319
     48 N          59.7236   92.8993    1.9432 N.ar    1  UNL1       -0.2279
     49 C          59.7555   92.3896    3.3536 C.ar    1  UNL1        0.1149
     50 N          60.8959   93.2548   -0.3478 N.pl3   1  UNL1       -0.2897
     51 C          62.0730   94.0011   -0.9025 C.3     1  UNL1        0.1136
     52 C          59.6869   93.0184   -1.2035 C.3     1  UNL1        0.1136
     53 C          64.4525   93.4257   11.4922 C.3     1  UNL1        0.1177
     54 C          65.4518   94.1311   10.6240 C.ar    1  UNL1       -0.0025
     55 C          66.5770   93.3616    9.9981 C.ar    1  UNL1       -0.0026
     56 C          67.5763   94.0670    9.1299 C.ar    1  UNL1       -0.0003
     57 C          67.4504   95.5419    8.8875 C.ar    1  UNL1       -0.0000
     58 C          66.3251   96.3114    9.5133 C.ar    1  UNL1       -0.0003
     59 C          65.3258   95.6060   10.3816 C.ar    1  UNL1       -0.0026
@<TRIPOS>BOND
     1    18    19    2
     2    19    17    1
     3    17     1    1
     4     1     2    1
     5     2     3    1
     6     3     4    2
     7     3     5   am
     8     5     6    1
     9     6    20    1
    10    20    21    1
    11    21    22   ar
    12    22    23   ar
    13    23    24   ar
    14    24    25    1
    15    24    26   ar
    16    26    27   ar
    17     6     7    1
    18     7     8    2
    19     7     9   am
    20     9    29    1
    21    29    30    1
    22    30    31   ar
    23    31    32   ar
    24    32    33   ar
    25    33    34   ar
    26    34    35   ar
    27    35    40    1
    28    40    41    2
    29    40    42   am
    30    42    44    1
    31    44    45   ar
    32    45    46   ar
    33    46    47   ar
    34    47    50    1
    35    50    51    1
    36    50    52    1
    37    47    48   ar
    38    48    49   ar
    39    35    36   ar
    40    36    37   ar
    41    37    38    1
    42    37    39   ar
    43     9    10    1
    44    11    10    1
    45    11    12    1
    46    12    13   am
    47    13    14    2
    48    13    15   am
    49    15    53    1
    50    53    54    1
    51    54    55   ar
    52    55    56   ar
    53    56    57   ar
    54    57    58   ar
    55    58    59   ar
    56    12     1    1
    57    59    54   ar
    58    11     5    1
    59    27    21   ar
    60    39    30   ar
    61    39    34   ar
    62    49    44   ar
    63    25    28    1
    64    42    43    1
    65    15    16    1
@<TRIPOS>MOLECULE
*****
 59 65 0 0 0
SMALL
GASTEIGER

@<TRIPOS>ATOM
      1 N          64.5418   83.1323   13.2784 N.3     1  UNL1       -0.1862
      2 C          65.1716   84.0087   14.3201 C.3     1  UNL1        0.1775
      3 C          64.7604   85.4463   14.4393 C.2     1  UNL1        0.2452
      4 O          65.3903   86.3226   15.4812 O.2     1  UNL1       -0.2732
      5 N          63.7193   86.0075   13.5168 N.am    1  UNL1       -0.2541
      6 C          63.3081   87.4451   13.6360 C.3     1  UNL1        0.1577
      7 C          62.2671   88.0064   12.7134 C.2     1  UNL1        0.2445
      8 O          61.8558   89.4440   12.8326 O.2     1  UNL1       -0.2731
      9 N          61.6372   87.1300   11.6716 N.am    1  UNL1       -0.2705
     10 C          62.0484   85.6924   11.5524 C.3     1  UNL1        0.1359
     11 C          63.0895   85.1312   12.4750 C.3     1  UNL1        0.1908
     12 N          63.5008   83.6936   12.3558 N.am    1  UNL1       -0.1863
     13 C          62.8709   82.8172   11.3140 C.2     1  UNL1        0.3191
     14 O          61.8298   83.3785   10.3914 O.2     1  UNL1       -0.2512
     15 N          63.2821   81.3796   11.1948 N.am    1  UNL1       -0.2836
     16 H          63.9654   81.0113   11.8003 H       1  UNL1        0.1513
     17 C          64.9530   81.6947   13.1592 C.3     1  UNL1        0.1188
     18 C          62.7619   80.7907   14.2229 C.2     1  UNL1       -0.0034
     19 C          64.2273   80.6398   13.9404 C.2     1  UNL1       -0.0071
     20 C          63.9379   88.3215   14.6777 C.3     1  UNL1        0.0556
     21 C          64.5304   89.6432   14.2876 C.ar    1  UNL1       -0.0198
     22 C          64.2068   90.2453   12.9525 C.ar    1  UNL1       -0.0011
     23 C          64.7992   91.5670   12.5624 C.ar    1  UNL1        0.0363
     24 C          65.7152   92.2865   13.5074 C.ar    1  UNL1        0.1337
     25 O          66.3076   93.6082   13.1174 O.3     1  UNL1       -0.5055
     26 C          66.0388   91.6844   14.8427 C.ar    1  UNL1        0.0363
     27 C          65.4464   90.3627   15.2328 C.ar    1  UNL1       -0.0011
     28 H          66.1055   93.9844   12.2833 H       1  UNL1        0.2922
     29 C          60.5961   87.6913   10.7490 C.3     1  UNL1        0.1217
     30 C          60.9408   88.8268    9.8315 C.ar    1  UNL1        0.0135
     31 C          61.9822   89.8279   10.2355 C.ar    1  UNL1       -0.0012
     32 C          62.3269   90.9634    9.3181 C.ar    1  UNL1       -0.0002
     33 C          61.6301   91.0979    7.9966 C.ar    1  UNL1        0.0016
     34 C          60.5886   90.0968    7.5926 C.ar    1  UNL1        0.0214
     35 C          59.7407   89.9719    6.3616 C.ar    1  UNL1        0.0722
     36 C          58.8720   88.7591    6.5183 C.ar    1  UNL1        0.0805
     37 N          59.1830   88.1346    7.8460 N.ar    1  UNL1       -0.3241
     38 C          58.5451   86.9000    8.4107 C.3     1  UNL1        0.1305
     39 C          60.2440   88.9613    8.5100 C.ar    1  UNL1        0.0577
     40 C          59.7583   90.8973    5.1811 C.2     1  UNL1        0.2510
     41 O          58.4685   91.3906    4.5955 O.2     1  UNL1       -0.2698
     42 N          61.0658   91.3294    4.5863 N.am    1  UNL1       -0.2791
     43 H          61.9124   91.0056    4.9707 H       1  UNL1        0.1552
     44 C          61.0836   92.2547    3.4059 C.ar    1  UNL1        0.0701
     45 C          62.2788   92.2922    2.5003 C.ar    1  UNL1        0.0191
     46 C          62.2966   93.2175    1.3199 C.ar    1  UNL1        0.0356
     47 C          61.1192   94.1054    1.0451 C.ar    1  UNL1        0.1319
     48 N          59.9240   94.0679    1.9507 N.ar    1  UNL1       -0.2279
     49 C          59.9062   93.1425    3.1311 C.ar    1  UNL1        0.1149
     50 N          61.1370   95.0307   -0.1353 N.pl3   1  UNL1       -0.2897
     51 C          62.4243   95.6653   -0.5716 C.3     1  UNL1        0.1136
     52 C          59.8675   95.3215   -0.8795 C.3     1  UNL1        0.1136
     53 C          62.6523   80.5033   10.1531 C.3     1  UNL1        0.1177
     54 C          63.0707   79.0683   10.0273 C.ar    1  UNL1       -0.0025
     55 C          64.0488   78.6626    8.9649 C.ar    1  UNL1       -0.0026
     56 C          64.4672   77.2277    8.8392 C.ar    1  UNL1       -0.0003
     57 C          63.9076   76.1984    9.7758 C.ar    1  UNL1       -0.0000
     58 C          62.9294   76.6041   10.8383 C.ar    1  UNL1       -0.0003
     59 C          62.5110   78.0390   10.9640 C.ar    1  UNL1       -0.0026
@<TRIPOS>BOND
     1    18    19    2
     2    19    17    1
     3    17     1    1
     4     1     2    1
     5     2     3    1
     6     3     4    2
     7     3     5   am
     8     5     6    1
     9     6    20    1
    10    20    21    1
    11    21    22   ar
    12    22    23   ar
    13    23    24   ar
    14    24    25    1
    15    24    26   ar
    16    26    27   ar
    17     6     7    1
    18     7     8    2
    19     7     9   am
    20     9    29    1
    21    29    30    1
    22    30    31   ar
    23    31    32   ar
    24    32    33   ar
    25    33    34   ar
    26    34    35   ar
    27    35    40    1
    28    40    41    2
    29    40    42   am
    30    42    44    1
    31    44    45   ar
    32    45    46   ar
    33    46    47   ar
    34    47    50    1
    35    50    51    1
    36    50    52    1
    37    47    48   ar
    38    48    49   ar
    39    35    36   ar
    40    36    37   ar
    41    37    38    1
    42    37    39   ar
    43     9    10    1
    44    11    10    1
    45    11    12    1
    46    12    13   am
    47    13    14    2
    48    13    15   am
    49    15    53    1
    50    53    54    1
    51    54    55   ar
    52    55    56   ar
    53    56    57   ar
    54    57    58   ar
    55    58    59   ar
    56    12     1    1
    57    59    54   ar
    58    11     5    1
    59    27    21   ar
    60    39    30   ar
    61    39    34   ar
    62    49    44   ar
    63    25    28    1
    64    42    43    1
    65    15    16    1
@<TRIPOS>MOLECULE
*****
 59 65 0 0 0
SMALL
GASTEIGER

@<TRIPOS>ATOM
      1 N          63.0142   83.8563    9.3713 N.3     1  UNL1       -0.1862
      2 C          62.4311   83.9633    7.9935 C.3     1  UNL1        0.1775
      3 C          61.5302   85.1116    7.6474 C.2     1  UNL1        0.2452
      4 O          60.9471   85.2185    6.2694 O.2     1  UNL1       -0.2732
      5 N          61.2124   86.1529    8.6791 N.am    1  UNL1       -0.2541
      6 C          60.3115   87.3012    8.3329 C.3     1  UNL1        0.1577
      7 C          59.9937   88.3426    9.3647 C.2     1  UNL1        0.2445
      8 O          59.0928   89.4909    9.0185 O.2     1  UNL1       -0.2731
      9 N          60.5768   88.2357   10.7426 N.am    1  UNL1       -0.2705
     10 C          61.4777   87.0874   11.0888 C.3     1  UNL1        0.1359
     11 C          61.7955   86.0460   10.0569 C.3     1  UNL1        0.1908
     12 N          62.6963   84.8977   10.4031 N.am    1  UNL1       -0.1863
     13 C          63.2794   84.7908   11.7810 C.2     1  UNL1        0.3191
     14 O          62.9616   85.8322   12.8127 O.2     1  UNL1       -0.2512
     15 N          64.1803   83.6425   12.1271 N.am    1  UNL1       -0.2836
     16 H          64.3889   82.9590   11.4500 H       1  UNL1        0.1513
     17 C          63.9150   82.7080    9.7175 C.3     1  UNL1        0.1188
     18 C          62.7767   81.1142   11.4244 C.2     1  UNL1       -0.0034
     19 C          63.3282   81.3690   10.0530 C.2     1  UNL1       -0.0071
     20 C          59.7284   87.4082    6.9551 C.3     1  UNL1        0.0556
     21 C          59.4499   88.7571    6.3611 C.ar    1  UNL1       -0.0198
     22 C          58.0446   89.2790    6.3111 C.ar    1  UNL1       -0.0011
     23 C          57.7661   90.6279    5.7172 C.ar    1  UNL1        0.0363
     24 C          58.8930   91.4550    5.1733 C.ar    1  UNL1        0.1337
     25 O          58.6145   92.8040    4.5793 O.3     1  UNL1       -0.5055
     26 C          60.2985   90.9332    5.2233 C.ar    1  UNL1        0.0363
     27 C          60.5769   89.5843    5.8172 C.ar    1  UNL1       -0.0011
     28 H          57.7366   93.1300    4.5481 H       1  UNL1        0.2922
     29 C          60.2590   89.2771   11.7743 C.3     1  UNL1        0.1217
     30 C          61.3283   89.7555   12.7113 C.ar    1  UNL1        0.0135
     31 C          61.2401   89.4383   14.1747 C.ar    1  UNL1       -0.0012
     32 C          62.3093   89.9167   15.1116 C.ar    1  UNL1       -0.0002
     33 C          63.4668   90.7123   14.5850 C.ar    1  UNL1        0.0016
     34 C          63.5550   91.0296   13.1216 C.ar    1  UNL1        0.0214
     35 C          64.5693   91.7885   12.3185 C.ar    1  UNL1        0.0722
     36 C          64.1270   91.7791   10.8852 C.ar    1  UNL1        0.0805
     37 N          62.8393   91.0144   10.8026 N.ar    1  UNL1       -0.3241
     38 C          62.0446   90.7580    9.5565 C.3     1  UNL1        0.1305
     39 C          62.4857   90.5512   12.1847 C.ar    1  UNL1        0.0577
     40 C          65.8086   92.4421   12.8545 C.2     1  UNL1        0.2510
     41 O          66.3589   93.6675   12.1870 O.2     1  UNL1       -0.2698
     42 N          66.4974   91.8702   14.0580 N.am    1  UNL1       -0.2791
     43 H          66.1362   91.0659   14.4961 H       1  UNL1        0.1552
     44 C          67.7366   92.5237   14.5941 C.ar    1  UNL1        0.0701
     45 C          67.6428   93.4736   15.7512 C.ar    1  UNL1        0.0191
     46 C          68.8819   94.1271   16.2874 C.ar    1  UNL1        0.0356
     47 C          70.2148   93.8308   15.6664 C.ar    1  UNL1        0.1319
     48 N          70.3086   92.8808   14.5093 N.ar    1  UNL1       -0.2279
     49 C          69.0694   92.2273   13.9732 C.ar    1  UNL1        0.1149
     50 N          71.4539   94.4842   16.2025 N.pl3   1  UNL1       -0.2897
     51 C          72.1409   95.5551   15.4079 C.3     1  UNL1        0.1136
     52 C          72.0063   94.0669   17.5332 C.3     1  UNL1        0.1136
     53 C          64.7634   83.5356   13.5050 C.3     1  UNL1        0.1177
     54 C          64.2275   84.3909   14.6146 C.ar    1  UNL1       -0.0025
     55 C          63.0350   83.9364   15.4029 C.ar    1  UNL1       -0.0026
     56 C          62.4992   84.7916   16.5126 C.ar    1  UNL1       -0.0003
     57 C          63.1557   86.1014   16.8339 C.ar    1  UNL1       -0.0000
     58 C          64.3482   86.5560   16.0456 C.ar    1  UNL1       -0.0003
     59 C          64.8841   85.7007   14.9360 C.ar    1  UNL1       -0.0026
@<TRIPOS>BOND
     1    18    19    2
     2    19    17    1
     3    17     1    1
     4     1     2    1
     5     2     3    1
     6     3     4    2
     7     3     5   am
     8     5     6    1
     9     6    20    1
    10    20    21    1
    11    21    22   ar
    12    22    23   ar
    13    23    24   ar
    14    24    25    1
    15    24    26   ar
    16    26    27   ar
    17     6     7    1
    18     7     8    2
    19     7     9   am
    20     9    29    1
    21    29    30    1
    22    30    31   ar
    23    31    32   ar
    24    32    33   ar
    25    33    34   ar
    26    34    35   ar
    27    35    40    1
    28    40    41    2
    29    40    42   am
    30    42    44    1
    31    44    45   ar
    32    45    46   ar
    33    46    47   ar
    34    47    50    1
    35    50    51    1
    36    50    52    1
    37    47    48   ar
    38    48    49   ar
    39    35    36   ar
    40    36    37   ar
    41    37    38    1
    42    37    39   ar
    43     9    10    1
    44    11    10    1
    45    11    12    1
    46    12    13   am
    47    13    14    2
    48    13    15   am
    49    15    53    1
    50    53    54    1
    51    54    55   ar
    52    55    56   ar
    53    56    57   ar
    54    57    58   ar
    55    58    59   ar
    56    12     1    1
    57    59    54   ar
    58    11     5    1
    59    27    21   ar
    60    39    30   ar
    61    39    34   ar
    62    49    44   ar
    63    25    28    1
    64    42    43    1
    65    15    16    1
