@<TRIPOS>MOLECULE
*****
 100 101 0 0 0
SMALL
GASTEIGER

@<TRIPOS>ATOM
      1 C          60.5528   93.2120    3.6483 C.3    11  UNK11       0.1789
      2 C          60.3827   92.4718    4.9418 C.2    11  UNK11       0.2433
      3 O          59.5699   93.5400    5.6115 O.2    11  UNK11      -0.2732
      4 N          60.3670   91.5287    6.1081 N.am    1  UNK1       -0.2969
      5 C          60.5065   90.4165    7.1049 C.3     1  UNK1        0.1488
      6 C          60.7960   89.1755    7.8963 C.2     1  UNK1        0.2439
      7 O          60.0618   89.6171    9.1275 O.2     1  UNK1       -0.2731
      8 N          61.2251   87.8506    8.4535 N.am    2  ALA2       -0.2699
      9 C          60.5725   88.0403    9.7907 C.3     0  ACE0        0.1153
     10 CA         61.7782   86.4897    8.7566 C.3     2  ALA2        0.1521
     11 CB         61.2308   86.4206   10.1513 C.3     2  ALA2        0.0314
     12 C          62.4354   85.1419    8.7944 C.2     2  ALA2        0.2441
     13 O          62.0129   84.8165   10.1964 O.2     2  ALA2       -0.2731
     14 N          63.1730   83.8559    8.5657 N.am    3  UNK3       -0.2699
     15 C          62.8907   83.2861    9.9242 C.3     3  UNK3        0.1153
     16 C          63.9642   82.6782    8.0788 C.3     3  UNK3        0.1531
     17 C          64.7805   81.6515    7.3511 C.2     3  UNK3        0.2409
     18 O          64.8038   80.6626    8.4787 O.2     3  UNK3       -0.2733
     19 N          65.5923   80.8127    6.4091 N.am    4  VAL4       -0.2970
     20 CA         66.3704   80.1923    5.2867 C.3     4  VAL4        0.1487
     21 C          67.0865   79.8126    4.0246 C.2     4  VAL4        0.2439
     22 O          67.5482   78.4740    4.5199 O.2     4  VAL4       -0.2731
     23 N          67.7149   79.6873    2.6683 N.am    5  LEU5       -0.2699
     24 C          68.2961   78.3250    2.9058 C.3     0  ACE0        0.1153
     25 CA         68.2328   79.8210    1.2670 C.3     5  LEU5        0.1518
     26 C          68.6215   80.2089   -0.1289 C.2     5  LEU5        0.2409
     27 O          69.3750   78.9457   -0.4233 O.2     5  LEU5       -0.2733
     28 N          68.8669   80.8369   -1.4688 N.am    6  ALA6       -0.2970
     29 CA         68.9602   81.6824   -2.7043 C.3     6  ALA6        0.1486
     30 CB         69.7781   80.6994   -3.4883 C.3     6  ALA6        0.0312
     31 C          68.8980   82.7147   -3.7907 C.2     6  ALA6        0.2406
     32 O          69.7041   81.9281   -4.7813 O.2     6  ALA6       -0.2733
     33 N          68.6825   83.8967   -4.6889 N.am    7  ALA7       -0.2970
     34 CA         68.3216   85.1854   -5.3662 C.3     7  ALA7        0.1489
     35 CB         69.0182   84.8684   -6.6564 C.3     7  ALA7        0.0312
     36 C          67.8283   86.5345   -5.7983 C.2     7  ALA7        0.2439
     37 O          68.4310   86.4739   -7.1705 O.2     7  ALA7       -0.2731
     38 N          67.2203   87.8950   -5.9695 N.am    8  LEU8       -0.2699
     39 C          67.7075   88.0931   -7.3743 C.3     0  ACE0        0.1153
     40 CA         66.5198   89.2179   -5.8738 C.3     8  LEU8        0.1520
     41 C          65.7519   90.4553   -5.5142 C.2     8  LEU8        0.2441
     42 O          65.9599   91.1402   -6.8325 O.2     8  LEU8       -0.2731
     43 N          64.9445   91.5626   -4.9042 N.am    9  LEU9       -0.2699
     44 C          64.9991   92.4579   -6.1065 C.3     0  ACE0        0.1153
     45 CA         64.1268   92.4996   -4.0656 C.3     9  LEU9        0.1520
     46 C          63.3282   93.2325   -3.0287 C.2     9  LEU9        0.2441
     47 O          63.0754   94.4453   -3.8744 O.2     9  LEU9       -0.2731
     48 N          62.5777   93.7348   -1.8311 N.am   10  VAL10      -0.2699
     49 C          62.1823   95.0432   -2.4491 C.3     0  ACE0        0.1153
     50 CA         61.9024   93.9885   -0.5159 C.3    10  VAL10       0.1520
     51 C          61.3266   93.9842    0.8692 C.2    10  VAL10       0.2441
     52 O          60.6933   95.3400    0.7646 O.2    10  VAL10      -0.2731
     53 N          60.8713   93.7222    2.2742 N.am   11  UNK11      -0.2680
     54 C          60.1514   95.0281    2.4366 C.3     0  ACE0        0.1154
     55 H          59.8317   92.1121    6.6931 H       1  UNK1        0.1499
     56 H          65.7089   80.0590    7.0317 H       4  VAL4        0.1499
     57 H          69.3921   80.0862   -1.8292 H       6  ALA6        0.1499
     58 H          69.1847   83.5278   -5.4511 H       7  ALA7        0.1499
     59 CB         61.3786   95.3450   -0.8840 C.3    10  VAL10       0.0271
     60 CG1        62.2089   96.5663   -0.6214 C.3    10  VAL10       0.0022
     61 CG2        60.0242   95.4802   -1.5146 C.3    10  VAL10       0.0022
     62 C          59.7724   94.4209    4.0720 C.3    11  UNK11       0.1377
     63 O          60.2663   95.7931    3.7216 O.3    11  UNK11      -0.3822
     64 H          59.6495   96.4570    4.0676 H      11  UNK11       0.2104
     65 C          58.4980   94.2575    4.8461 C.3    11  UNK11       0.0334
     66 C          57.6186   95.4453    5.1024 C.3    11  UNK11       0.0029
     67 C          58.1030   92.9062    5.3640 C.3    11  UNK11       0.0282
     68 C          55.2144   90.2843    4.6350 C.3    11  UNK11       0.0303
     69 C          56.2348   91.1008    5.3714 C.2    11  UNK11      -0.0304
     70 C          57.0826   92.0897    4.6277 C.2    11  UNK11      -0.0306
     71 CB         66.6959   78.9259    6.0220 C.3     4  VAL4        0.0269
     72 CG1        66.6601   78.8987    7.5213 C.3     4  VAL4        0.0022
     73 CG2        67.0573   77.6868    5.2578 C.3     4  VAL4        0.0022
     74 C          59.7173   91.0939    8.1858 C.3     1  UNK1        0.0290
     75 C          60.3007   91.2416    9.5598 C.3     1  UNK1        0.0023
     76 C          63.8323   81.8846    9.3447 C.3     3  UNK3        0.0431
     77 C          62.6958   80.9199    9.5102 C.3     3  UNK3        0.0037
     78 C          64.8371   82.0557   10.4453 C.3     3  UNK3        0.0743
     79 N          64.3787   82.3870   11.8345 N.3     3  UNK3       -0.2703
     80 C          65.3305   83.0161   12.8084 C.3     3  UNK3        0.0897
     81 C          64.8721   83.3474   14.1976 C.3     3  UNK3        0.0897
     82 N          63.4620   83.0497   14.6131 N.3     3  UNK3       -0.2682
     83 C          62.5101   82.4206   13.6394 C.3     3  UNK3        0.0897
     84 C          62.9685   82.0893   12.2500 C.3     3  UNK3        0.0897
     85 C          63.0036   83.3810   16.0024 C.3     3  UNK3        0.1046
     86 C          62.8805   84.8136   16.4299 C.3     3  UNK3        0.1595
     87 O          61.5516   85.3539   16.8680 O.3     3  UNK3       -0.3496
     88 C          61.1366   86.7389   16.4686 C.3     3  UNK3        0.1742
     89 CB         64.0258   93.5731   -5.1084 C.3     9  LEU9        0.0292
     90 CG         65.2608   94.2880   -5.5708 C.3     9  LEU9        0.0021
     91 CD1        66.5706   94.0448   -4.8816 C.3     9  LEU9        0.0001
     92 CD2        65.1858   95.2461   -6.7225 C.3     9  LEU9        0.0001
     93 CB         66.8738   89.6676   -7.2603 C.3     8  LEU8        0.0292
     94 CG         67.8017   90.8295   -7.4579 C.3     8  LEU8        0.0021
     95 CD1        69.2809   90.6000   -7.5542 C.3     8  LEU8        0.0001
     96 CD2        67.2504   92.2208   -7.5593 C.3     8  LEU8        0.0001
     97 CB         68.9124   78.4842    1.2380 C.3     5  LEU5        0.0292
     98 CG         69.7565   78.0465    2.3981 C.3     5  LEU5        0.0021
     99 CD1        70.7240   76.9118    2.2360 C.3     5  LEU5        0.0001
    100 CD2        69.6330   78.7436    3.7206 C.3     5  LEU5        0.0001
@<TRIPOS>BOND
     1    68    69    1
     2    69    70    2
     3    70    67    1
     4    67    65    1
     5    65    66    1
     6    65    62    1
     7    62    63    1
     8    62     1    1
     9     1     2    1
    10     2     3    2
    11     2     4   am
    12     4     5    1
    13     5    74    1
    14    74    75    1
    15     5     6    1
    16     6     7    2
    17     6     8   am
    18     8     9    1
    19     8    10    1
    20    10    11    1
    21    10    12    1
    22    12    13    2
    23    12    14   am
    24    14    15    1
    25    16    14    1
    26    16    76    1
    27    76    77    1
    28    76    78    1
    29    78    79    1
    30    79    80    1
    31    80    81    1
    32    81    82    1
    33    82    85    1
    34    85    86    1
    35    86    87    1
    36    87    88    1
    37    82    83    1
    38    83    84    1
    39    16    17    1
    40    17    18    2
    41    17    19   am
    42    19    20    1
    43    20    71    1
    44    71    72    1
    45    71    73    1
    46    20    21    1
    47    21    22    2
    48    21    23   am
    49    23    24    1
    50    23    25    1
    51    25    97    1
    52    97    98    1
    53    98    99    1
    54    98   100    1
    55    25    26    1
    56    26    27    2
    57    26    28   am
    58    28    29    1
    59    29    30    1
    60    29    31    1
    61    31    32    2
    62    31    33   am
    63    33    34    1
    64    34    35    1
    65    34    36    1
    66    36    37    2
    67    36    38   am
    68    38    39    1
    69    38    40    1
    70    40    93    1
    71    93    94    1
    72    94    95    1
    73    94    96    1
    74    40    41    1
    75    41    42    2
    76    41    43   am
    77    43    44    1
    78    43    45    1
    79    45    89    1
    80    89    90    1
    81    90    91    1
    82    90    92    1
    83    45    46    1
    84    46    47    2
    85    46    48   am
    86    48    49    1
    87    48    50    1
    88    50    59    1
    89    59    60    1
    90    59    61    1
    91    50    51    1
    92    51    52    2
    93    51    53   am
    94    53    54    1
    95     1    53    1
    96    84    79    1
    97    63    64    1
    98     4    55    1
    99    19    56    1
   100    28    57    1
   101    33    58    1
@<TRIPOS>MOLECULE
*****
 100 101 0 0 0
SMALL
GASTEIGER

@<TRIPOS>ATOM
      1 C          61.4577   86.6276    8.9635 C.3    11  UNK11       0.1789
      2 C          60.8717   87.9638    8.6152 C.2    11  UNK11       0.2433
      3 O          60.1582   88.1514    9.9213 O.2    11  UNK11      -0.2732
      4 N          60.4213   89.2642    8.0186 N.am    1  UNK1       -0.2969
      5 C          60.1228   90.4820    7.1953 C.3     1  UNK1        0.1488
      6 C          59.9871   91.5732    6.1750 C.2     1  UNK1        0.2439
      7 O          59.1055   92.4470    7.0171 O.2     1  UNK1       -0.2731
      8 N          60.0189   92.4982    4.9946 N.am    2  ALA2       -0.2699
      9 C          59.1434   93.5478    5.6123 C.3     0  ACE0        0.1153
     10 CA         60.2171   93.2236    3.6968 C.3     2  ALA2        0.1521
     11 CB         59.3793   94.4112    4.0678 C.3     2  ALA2        0.0314
     12 C          60.5747   93.7233    2.3284 C.2     2  ALA2        0.2441
     13 O          59.8049   95.0059    2.4392 O.2     2  ALA2       -0.2731
     14 N          61.0787   93.9791    0.9389 N.am    3  UNK3       -0.2699
     15 C          60.4046   95.3103    0.7856 C.3     3  UNK3        0.1153
     16 C          61.7107   93.9819   -0.4215 C.3     3  UNK3        0.1531
     17 C          62.4481   93.7314   -1.7035 C.2     3  UNK3        0.2409
     18 O          62.0344   95.0155   -2.3591 O.2     3  UNK3       -0.2733
     19 N          63.2641   93.2369   -2.8608 N.am    4  VAL4       -0.2970
     20 CA         64.1293   92.5160   -3.8517 C.3     4  VAL4        0.1487
     21 C          65.0124   91.5950   -4.6403 C.2     4  VAL4        0.2439
     22 O          65.0862   92.4730   -5.8543 O.2     4  VAL4       -0.2731
     23 N          65.8815   90.5071   -5.1982 N.am    5  LEU5       -0.2699
     24 C          66.1204   91.1783   -6.5181 C.3     0  ACE0        0.1153
     25 CA         66.7051   89.2916   -5.5051 C.3     5  LEU5        0.1518
     26 C          67.4535   87.9924   -5.5499 C.2     5  LEU5        0.2409
     27 O          67.9914   88.1855   -6.9368 O.2     5  LEU5       -0.2733
     28 N          68.0997   86.6565   -5.3311 N.am    6  ALA6       -0.2970
     29 CA         68.6202   85.3322   -4.8565 C.3     6  ALA6        0.1486
     30 CB         69.3798   85.0195   -6.1115 C.3     6  ALA6        0.0312
     31 C          68.9963   84.0674   -4.1433 C.2     6  ALA6        0.2406
     32 O          69.8275   83.5142   -5.2627 O.2     6  ALA6       -0.2733
     33 N          69.2144   82.9076   -3.2172 N.am    7  ALA7       -0.2970
     34 CA         69.2666   81.8950   -2.1119 C.3     7  ALA7        0.1489
     35 CB         70.1492   80.9288   -2.8452 C.3     7  ALA7        0.0312
     36 C          69.1510   81.0660   -0.8671 C.2     7  ALA7        0.2439
     37 O          70.0116   79.9423   -1.3637 O.2     7  ALA7       -0.2731
     38 N          68.8718   80.4507    0.4720 N.am    8  LEU8       -0.2699
     39 C          69.6794   79.2100    0.2300 C.3     0  ACE0        0.1153
     40 CA         68.4392   80.0712    1.8572 C.3     8  LEU8        0.1520
     41 C          67.8686   79.9414    3.2384 C.2     8  LEU8        0.2441
     42 O          68.4853   78.6038    3.5223 O.2     8  LEU8       -0.2731
     43 N          67.1807   80.0657    4.5656 N.am    9  LEU9       -0.2699
     44 C          67.6667   78.7518    5.1018 C.3     0  ACE0        0.1153
     45 CA         66.4005   80.4399    5.7909 C.3     9  LEU9        0.1520
     46 C          65.5561   81.0503    6.8698 C.2     9  LEU9        0.2441
     47 O          65.7332   79.9237    7.8441 O.2     9  LEU9       -0.2731
     48 N          64.6780   81.8750    7.7636 N.am   10  VAL10      -0.2699
     49 C          64.6882   80.9051    8.9078 C.3     0  ACE0        0.1153
     50 CA         63.7979   82.8840    8.4400 C.3    10  VAL10       0.1520
     51 C          62.9477   84.0411    8.8742 C.2    10  VAL10       0.2441
     52 O          62.6289   83.4829   10.2296 O.2    10  VAL10      -0.2731
     53 N          62.1581   85.3041    9.0509 N.am   11  UNK11      -0.2680
     54 C          61.6893   84.9861   10.4398 C.3     0  ACE0        0.1154
     55 H          59.8969   89.5496    8.8014 H       1  UNK1        0.1499
     56 H          63.0944   94.0180   -3.4355 H       4  VAL4        0.1499
     57 H          68.5333   86.6165   -6.2140 H       6  ALA6        0.1499
     58 H          69.7871   82.3999   -3.8364 H       7  ALA7        0.1499
     59 CB         63.6408   82.1059    9.7126 C.3    10  VAL10       0.0271
     60 CG1        62.7994   80.8643    9.7338 C.3    10  VAL10       0.0022
     61 CG2        64.3253   82.5695   10.9644 C.3    10  VAL10       0.0022
     62 C          60.8557   86.5612   10.3358 C.3    11  UNK11       0.1377
     63 O          59.7840   85.5558   10.6368 O.3    11  UNK11      -0.3822
     64 H          59.5064   85.6463   11.5618 H      11  UNK11       0.2104
     65 C          61.3253   87.5002   11.4070 C.3    11  UNK11       0.0334
     66 C          60.3364   88.1115   12.3549 C.3    11  UNK11       0.0029
     67 C          62.7839   87.8281   11.5305 C.3    11  UNK11       0.0282
     68 C          64.3196   90.0802   14.4148 C.3    11  UNK11       0.0303
     69 C          63.8855   88.8718   13.6392 C.2    11  UNK11      -0.0304
     70 C          63.2180   89.0363   12.3060 C.2    11  UNK11      -0.0306
     71 CB         64.0352   93.5692   -4.9158 C.3     4  VAL4        0.0269
     72 CG1        62.9874   93.4645   -5.9840 C.3     4  VAL4        0.0022
     73 CG2        64.9890   94.7269   -4.9115 C.3     4  VAL4        0.0022
     74 C          59.2671   91.1485    8.2314 C.3     1  UNK1        0.0290
     75 C          59.4428   90.8075    9.6816 C.3     1  UNK1        0.0023
     76 C          61.1568   95.3136   -0.8333 C.3     3  UNK3        0.0431
     77 C          61.4040   96.5242    0.0171 C.3     3  UNK3        0.0037
     78 C          60.3557   95.4347   -2.0957 C.3     3  UNK3        0.0743
     79 N          58.9465   94.9229   -2.1417 N.3     3  UNK3       -0.2703
     80 C          58.3842   94.3881   -3.4255 C.3     3  UNK3        0.0897
     81 C          56.9750   93.8763   -3.4714 C.3     3  UNK3        0.0897
     82 N          56.1280   93.8992   -2.2337 N.3     3  UNK3       -0.2682
     83 C          56.6902   94.4339   -0.9500 C.3     3  UNK3        0.0897
     84 C          58.0995   94.9457   -0.9040 C.3     3  UNK3        0.0897
     85 C          54.7188   93.3874   -2.2797 C.3     3  UNK3        0.1046
     86 C          54.4575   91.9104   -2.2987 C.3     3  UNK3        0.1595
     87 O          55.5902   90.9511   -2.5146 O.3     3  UNK3       -0.3496
     88 C          55.3284   89.6073   -3.1276 C.3     3  UNK3        0.1742
     89 CB         66.7382   79.1972    6.5600 C.3     9  LEU9        0.0292
     90 CG         65.8122   78.0176    6.5234 C.3     9  LEU9        0.0021
     91 CD1        65.3131   77.4965    5.2084 C.3     9  LEU9        0.0001
     92 CD2        65.3853   77.3593    7.8018 C.3     9  LEU9        0.0001
     93 CB         69.1644   78.7584    1.8786 C.3     8  LEU8        0.0292
     94 CG         68.6572   77.6080    1.0603 C.3     8  LEU8        0.0021
     95 CD1        69.1852   76.2251    1.3023 C.3     8  LEU8        0.0001
     96 CD2        67.6221   77.8406   -0.0001 C.3     8  LEU8        0.0001
     97 CB         67.1006   89.7317   -6.8834 C.3     5  LEU5        0.0292
     98 CG         68.4727   90.2859   -7.1289 C.3     5  LEU5        0.0021
     99 CD1        69.5860   89.3731   -7.5502 C.3     5  LEU5        0.0001
    100 CD2        68.7315   91.7529   -6.9532 C.3     5  LEU5        0.0001
@<TRIPOS>BOND
     1    68    69    1
     2    69    70    2
     3    70    67    1
     4    67    65    1
     5    65    66    1
     6    65    62    1
     7    62    63    1
     8    62     1    1
     9     1     2    1
    10     2     3    2
    11     2     4   am
    12     4     5    1
    13     5    74    1
    14    74    75    1
    15     5     6    1
    16     6     7    2
    17     6     8   am
    18     8     9    1
    19     8    10    1
    20    10    11    1
    21    10    12    1
    22    12    13    2
    23    12    14   am
    24    14    15    1
    25    16    14    1
    26    16    76    1
    27    76    77    1
    28    76    78    1
    29    78    79    1
    30    79    80    1
    31    80    81    1
    32    81    82    1
    33    82    85    1
    34    85    86    1
    35    86    87    1
    36    87    88    1
    37    82    83    1
    38    83    84    1
    39    16    17    1
    40    17    18    2
    41    17    19   am
    42    19    20    1
    43    20    71    1
    44    71    72    1
    45    71    73    1
    46    20    21    1
    47    21    22    2
    48    21    23   am
    49    23    24    1
    50    23    25    1
    51    25    97    1
    52    97    98    1
    53    98    99    1
    54    98   100    1
    55    25    26    1
    56    26    27    2
    57    26    28   am
    58    28    29    1
    59    29    30    1
    60    29    31    1
    61    31    32    2
    62    31    33   am
    63    33    34    1
    64    34    35    1
    65    34    36    1
    66    36    37    2
    67    36    38   am
    68    38    39    1
    69    38    40    1
    70    40    93    1
    71    93    94    1
    72    94    95    1
    73    94    96    1
    74    40    41    1
    75    41    42    2
    76    41    43   am
    77    43    44    1
    78    43    45    1
    79    45    89    1
    80    89    90    1
    81    90    91    1
    82    90    92    1
    83    45    46    1
    84    46    47    2
    85    46    48   am
    86    48    49    1
    87    48    50    1
    88    50    59    1
    89    59    60    1
    90    59    61    1
    91    50    51    1
    92    51    52    2
    93    51    53   am
    94    53    54    1
    95     1    53    1
    96    84    79    1
    97    63    64    1
    98     4    55    1
    99    19    56    1
   100    28    57    1
   101    33    58    1
