@<TRIPOS>MOLECULE
*****
 30 33 0 0 0
SMALL
GASTEIGER

@<TRIPOS>ATOM
      1 C          64.4040   89.8905   14.0721 C.ar    1  UNL1        0.0121
      2 C          65.5629   90.7136   14.5511 C.ar    1  UNL1       -0.0015
      3 C          66.0078   91.9114   13.7653 C.ar    1  UNL1       -0.0025
      4 C          65.2937   92.2860   12.5006 C.ar    1  UNL1        0.0051
      5 C          64.1347   91.4630   12.0216 C.ar    1  UNL1        0.0342
      6 C          63.6899   90.2652   12.8074 C.ar    1  UNL1        0.1343
      7 C          63.9592   88.6927   14.8580 C.3     1  UNL1        0.0353
      8 C          64.2677   87.3120   14.3597 C.3     1  UNL1        0.0465
      9 O          65.0804   84.9586   15.1020 O.co2   1  UNL1       -0.5492
     10 C          64.1765   86.1405   15.2919 C.2     1  UNL1        0.0507
     11 O          63.1812   86.1508   16.4142 O.co2   1  UNL1       -0.5492
     12 C          65.7385   93.4839   11.7148 C.3     1  UNL1        0.1539
     13 N          66.7979   93.3395   10.6628 N.ar    1  UNL1       -0.2449
     14 C          66.9140   94.1569    9.4104 C.ar    1  UNL1        0.0971
     15 C          68.1150   93.6750    8.6520 C.ar    1  UNL1        0.0427
     16 C          68.7413   92.5597    9.4357 C.ar    1  UNL1        0.1217
     17 N          67.9272   92.3524   10.6783 N.ar    1  UNL1       -0.1673
     18 O          62.5309   89.4422   12.3284 O.3     1  UNL1       -0.4754
     19 C          62.1494   89.4567   10.8778 C.3     1  UNL1        0.2100
     20 C          61.3894   88.3045   10.2906 C.3     1  UNL1        0.0736
     21 C          62.0249   86.9479   10.2141 C.ar    1  UNL1       -0.0184
     22 C          62.5297   86.4293    8.9002 C.ar    1  UNL1       -0.0041
     23 C          63.1652   85.0728    8.8236 C.ar    1  UNL1       -0.0003
     24 C          63.2959   84.2348   10.0609 C.ar    1  UNL1       -0.0000
     25 C          63.9314   82.8783    9.9843 C.ar    1  UNL1       -0.0000
     26 C          64.0621   82.0404   11.2215 C.ar    1  UNL1       -0.0000
     27 C          63.5573   82.5590   12.5354 C.ar    1  UNL1       -0.0000
     28 C          62.9218   83.9155   12.6120 C.ar    1  UNL1       -0.0000
     29 C          62.7911   84.7534   11.3747 C.ar    1  UNL1       -0.0003
     30 C          62.1556   86.1100   11.4513 C.ar    1  UNL1       -0.0041
@<TRIPOS>UNITY_ATOM_ATTR
9 1
charge -1
@<TRIPOS>BOND
     1     9    10   ar
     2    10    11   ar
     3    10     8    1
     4     8     7    1
     5     7     1    1
     6     1     2   ar
     7     2     3   ar
     8     3     4   ar
     9     4    12    1
    10    12    13    1
    11    13    14   ar
    12    14    15   ar
    13    15    16   ar
    14    16    17   ar
    15     4     5   ar
    16     5     6   ar
    17     6    18    1
    18    18    19    1
    19    19    20    1
    20    20    21    1
    21    21    22   ar
    22    22    23   ar
    23    23    24   ar
    24    24    25   ar
    25    25    26   ar
    26    26    27   ar
    27    27    28   ar
    28    28    29   ar
    29    29    30   ar
    30     6     1   ar
    31    30    21   ar
    32    17    13   ar
    33    29    24   ar
@<TRIPOS>MOLECULE
*****
 30 33 0 0 0
SMALL
GASTEIGER

@<TRIPOS>ATOM
      1 C          64.5737   91.5810   12.0218 C.ar    1  UNL1        0.0121
      2 C          65.3679   91.8581   13.2638 C.ar    1  UNL1       -0.0015
      3 C          64.9973   91.1915   14.5553 C.ar    1  UNL1       -0.0025
      4 C          63.8324   90.2478   14.6050 C.ar    1  UNL1        0.0051
      5 C          63.0382   89.9707   13.3630 C.ar    1  UNL1        0.0342
      6 C          63.4088   90.6373   12.0715 C.ar    1  UNL1        0.1343
      7 C          64.9444   92.2476   10.7302 C.3     1  UNL1        0.0353
      8 C          65.8921   93.4102   10.7312 C.3     1  UNL1        0.0465
      9 O          67.9493   94.5310    9.6079 O.co2   1  UNL1       -0.5492
     10 C          67.2214   93.2948   10.0460 C.2     1  UNL1        0.0507
     11 O          67.8229   91.9430    9.7988 O.co2   1  UNL1       -0.5492
     12 C          63.4617   89.5811   15.8966 C.3     1  UNL1        0.1539
     13 N          63.5331   88.0877   16.0173 N.ar    1  UNL1       -0.2449
     14 C          64.3355   87.1699   15.1434 C.ar    1  UNL1        0.0971
     15 C          64.1129   85.7649   15.6191 C.ar    1  UNL1        0.0427
     16 C          63.1729   85.8143   16.7870 C.ar    1  UNL1        0.1217
     17 N          62.8146   87.2499   17.0331 N.ar    1  UNL1       -0.1673
     18 O          62.6146   90.3602   10.8295 O.3     1  UNL1       -0.4754
     19 C          61.4715   89.3898   10.8712 C.3     1  UNL1        0.2100
     20 C          61.2952   88.3908    9.7663 C.3     1  UNL1        0.0736
     21 C          61.9477   87.0435    9.8622 C.ar    1  UNL1       -0.0184
     22 C          62.4794   86.3781    8.6275 C.ar    1  UNL1       -0.0041
     23 C          63.1319   85.0309    8.7234 C.ar    1  UNL1       -0.0003
     24 C          63.2527   84.3490   10.0540 C.ar    1  UNL1       -0.0000
     25 C          63.9051   83.0017   10.1499 C.ar    1  UNL1       -0.0000
     26 C          64.0259   82.3199   11.4805 C.ar    1  UNL1       -0.0000
     27 C          63.4941   82.9853   12.7152 C.ar    1  UNL1       -0.0000
     28 C          62.8417   84.3326   12.6193 C.ar    1  UNL1       -0.0000
     29 C          62.7209   85.0144   11.2887 C.ar    1  UNL1       -0.0003
     30 C          62.0684   86.3617   11.1928 C.ar    1  UNL1       -0.0041
@<TRIPOS>UNITY_ATOM_ATTR
9 1
charge -1
@<TRIPOS>BOND
     1     9    10   ar
     2    10    11   ar
     3    10     8    1
     4     8     7    1
     5     7     1    1
     6     1     2   ar
     7     2     3   ar
     8     3     4   ar
     9     4    12    1
    10    12    13    1
    11    13    14   ar
    12    14    15   ar
    13    15    16   ar
    14    16    17   ar
    15     4     5   ar
    16     5     6   ar
    17     6    18    1
    18    18    19    1
    19    19    20    1
    20    20    21    1
    21    21    22   ar
    22    22    23   ar
    23    23    24   ar
    24    24    25   ar
    25    25    26   ar
    26    26    27   ar
    27    27    28   ar
    28    28    29   ar
    29    29    30   ar
    30     6     1   ar
    31    30    21   ar
    32    17    13   ar
    33    29    24   ar
@<TRIPOS>MOLECULE
*****
 30 33 0 0 0
SMALL
GASTEIGER

@<TRIPOS>ATOM
      1 C          62.7994   89.3352   11.3260 C.ar    1  UNL1        0.0121
      2 C          62.9828   90.5106   10.4123 C.ar    1  UNL1       -0.0015
      3 C          63.8783   91.6433   10.8181 C.ar    1  UNL1       -0.0025
      4 C          64.5905   91.6007   12.1375 C.ar    1  UNL1        0.0051
      5 C          64.4071   90.4253   13.0512 C.ar    1  UNL1        0.0342
      6 C          63.5116   89.2925   12.6454 C.ar    1  UNL1        0.1343
      7 C          61.9037   88.2023   10.9202 C.3     1  UNL1        0.0353
      8 C          60.4398   88.4450   10.7016 C.3     1  UNL1        0.0465
      9 O          59.2350   88.9578   12.9456 O.co2   1  UNL1       -0.5492
     10 C          59.6972   89.3997   11.5887 C.2     1  UNL1        0.0507
     11 O          59.4167   90.7964   11.1189 O.co2   1  UNL1       -0.5492
     12 C          65.4862   92.7336   12.5433 C.3     1  UNL1        0.1539
     13 N          66.3261   92.6193   13.7808 N.ar    1  UNL1       -0.2449
     14 C          67.6821   91.9843   13.8705 C.ar    1  UNL1        0.0971
     15 C          68.1516   92.0925   15.2910 C.ar    1  UNL1        0.0427
     16 C          67.0857   92.7945   16.0793 C.ar    1  UNL1        0.1217
     17 N          65.9575   93.1200   15.1459 N.ar    1  UNL1       -0.1673
     18 O          63.3282   88.1171   13.5591 O.3     1  UNL1       -0.4754
     19 C          64.3821   87.7838   14.5731 C.3     1  UNL1        0.2100
     20 C          64.2803   86.5186   15.3724 C.3     1  UNL1        0.0736
     21 C          63.8006   85.2558   14.7200 C.ar    1  UNL1       -0.0184
     22 C          62.8446   84.3544   15.4435 C.ar    1  UNL1       -0.0041
     23 C          62.3648   83.0917   14.7912 C.ar    1  UNL1       -0.0003
     24 C          62.8412   82.7305   13.4154 C.ar    1  UNL1       -0.0000
     25 C          62.3614   81.4678   12.7632 C.ar    1  UNL1       -0.0000
     26 C          62.8378   81.1066   11.3875 C.ar    1  UNL1       -0.0000
     27 C          63.7938   82.0081   10.6640 C.ar    1  UNL1       -0.0000
     28 C          64.2735   83.2707   11.3163 C.ar    1  UNL1       -0.0000
     29 C          63.7972   83.6319   12.6920 C.ar    1  UNL1       -0.0003
     30 C          64.2769   84.8947   13.3443 C.ar    1  UNL1       -0.0041
@<TRIPOS>UNITY_ATOM_ATTR
9 1
charge -1
@<TRIPOS>BOND
     1     9    10   ar
     2    10    11   ar
     3    10     8    1
     4     8     7    1
     5     7     1    1
     6     1     2   ar
     7     2     3   ar
     8     3     4   ar
     9     4    12    1
    10    12    13    1
    11    13    14   ar
    12    14    15   ar
    13    15    16   ar
    14    16    17   ar
    15     4     5   ar
    16     5     6   ar
    17     6    18    1
    18    18    19    1
    19    19    20    1
    20    20    21    1
    21    21    22   ar
    22    22    23   ar
    23    23    24   ar
    24    24    25   ar
    25    25    26   ar
    26    26    27   ar
    27    27    28   ar
    28    28    29   ar
    29    29    30   ar
    30     6     1   ar
    31    30    21   ar
    32    17    13   ar
    33    29    24   ar
@<TRIPOS>MOLECULE
*****
 30 33 0 0 0
SMALL
GASTEIGER

@<TRIPOS>ATOM
      1 C          62.9429   89.5402   11.7095 C.ar    1  UNL1        0.0121
      2 C          63.1908   90.5267   10.6071 C.ar    1  UNL1       -0.0015
      3 C          64.1100   91.6901   10.8343 C.ar    1  UNL1       -0.0025
      4 C          64.7812   91.8669   12.1640 C.ar    1  UNL1        0.0051
      5 C          64.5333   90.8804   13.2665 C.ar    1  UNL1        0.0342
      6 C          63.6141   89.7171   13.0392 C.ar    1  UNL1        0.1343
      7 C          62.0237   88.3768   11.4822 C.3     1  UNL1        0.0353
      8 C          60.6399   88.6069   10.9511 C.3     1  UNL1        0.0465
      9 O          59.3904   90.8602   11.2850 O.co2   1  UNL1       -0.5492
     10 C          59.6715   89.4533   11.7228 C.2     1  UNL1        0.0507
     11 O          58.9840   88.8928   12.9326 O.co2   1  UNL1       -0.5492
     12 C          65.7005   93.0303   12.3913 C.3     1  UNL1        0.1539
     13 N          66.4595   93.6224   11.2410 N.ar    1  UNL1       -0.2449
     14 C          66.3084   95.0168   10.7093 C.ar    1  UNL1        0.0971
     15 C          67.2584   95.1802    9.5601 C.ar    1  UNL1        0.0427
     16 C          67.9967   93.8867    9.3815 C.ar    1  UNL1        0.1217
     17 N          67.5029   92.9239   10.4204 N.ar    1  UNL1       -0.1673
     18 O          63.3662   88.7306   14.1417 O.3     1  UNL1       -0.4754
     19 C          64.4412   87.7623   14.5374 C.3     1  UNL1        0.2100
     20 C          64.1026   86.5698   15.3820 C.3     1  UNL1        0.0736
     21 C          63.6890   85.2830   14.7314 C.ar    1  UNL1       -0.0184
     22 C          62.8165   84.3142   15.4731 C.ar    1  UNL1       -0.0041
     23 C          62.4029   83.0275   14.8226 C.ar    1  UNL1       -0.0003
     24 C          62.8618   82.7095   13.4303 C.ar    1  UNL1       -0.0000
     25 C          62.4481   81.4228   12.7798 C.ar    1  UNL1       -0.0000
     26 C          62.9070   81.1049   11.3876 C.ar    1  UNL1       -0.0000
     27 C          63.7794   82.0738   10.6458 C.ar    1  UNL1       -0.0000
     28 C          64.1931   83.3605   11.2964 C.ar    1  UNL1       -0.0000
     29 C          63.7342   83.6784   12.6886 C.ar    1  UNL1       -0.0003
     30 C          64.1478   84.9652   13.3392 C.ar    1  UNL1       -0.0041
@<TRIPOS>UNITY_ATOM_ATTR
9 1
charge -1
@<TRIPOS>BOND
     1     9    10   ar
     2    10    11   ar
     3    10     8    1
     4     8     7    1
     5     7     1    1
     6     1     2   ar
     7     2     3   ar
     8     3     4   ar
     9     4    12    1
    10    12    13    1
    11    13    14   ar
    12    14    15   ar
    13    15    16   ar
    14    16    17   ar
    15     4     5   ar
    16     5     6   ar
    17     6    18    1
    18    18    19    1
    19    19    20    1
    20    20    21    1
    21    21    22   ar
    22    22    23   ar
    23    23    24   ar
    24    24    25   ar
    25    25    26   ar
    26    26    27   ar
    27    27    28   ar
    28    28    29   ar
    29    29    30   ar
    30     6     1   ar
    31    30    21   ar
    32    17    13   ar
    33    29    24   ar
@<TRIPOS>MOLECULE
*****
 30 33 0 0 0
SMALL
GASTEIGER

@<TRIPOS>ATOM
      1 C          62.7512   89.3148   11.2717 C.ar    1  UNL1        0.0121
      2 C          62.8733   90.5091   10.3724 C.ar    1  UNL1       -0.0015
      3 C          63.7637   91.6521   10.7603 C.ar    1  UNL1       -0.0025
      4 C          64.5321   91.6008   12.0475 C.ar    1  UNL1        0.0051
      5 C          64.4101   90.4065   12.9467 C.ar    1  UNL1        0.0342
      6 C          63.5196   89.2635   12.5588 C.ar    1  UNL1        0.1343
      7 C          61.8607   88.1717   10.8837 C.3     1  UNL1        0.0353
      8 C          62.0987   87.4389    9.5968 C.3     1  UNL1        0.0465
      9 O          61.9770   85.1506   10.8212 O.co2   1  UNL1       -0.5492
     10 C          62.3392   85.9584    9.6102 C.2     1  UNL1        0.0507
     11 O          62.9418   85.2855    8.4126 O.co2   1  UNL1       -0.5492
     12 C          65.4226   92.7439   12.4354 C.3     1  UNL1        0.1539
     13 N          66.2785   92.6446   13.6632 N.ar    1  UNL1       -0.2449
     14 C          67.6730   92.0953   13.7239 C.ar    1  UNL1        0.0971
     15 C          68.1465   92.1884   15.1441 C.ar    1  UNL1        0.0427
     16 C          67.0447   92.7953   15.9613 C.ar    1  UNL1        0.1217
     17 N          65.8902   93.0773   15.0460 N.ar    1  UNL1       -0.1673
     18 O          63.3976   88.0692   13.4581 O.3     1  UNL1       -0.4754
     19 C          64.3154   87.9196   14.6351 C.3     1  UNL1        0.2100
     20 C          64.9460   86.5910   14.9303 C.3     1  UNL1        0.0736
     21 C          64.1472   85.3308   14.7758 C.ar    1  UNL1       -0.0184
     22 C          63.0832   84.9897   15.7765 C.ar    1  UNL1       -0.0041
     23 C          62.2845   83.7295   15.6220 C.ar    1  UNL1       -0.0003
     24 C          62.5498   82.8103   14.4667 C.ar    1  UNL1       -0.0000
     25 C          61.7510   81.5501   14.3121 C.ar    1  UNL1       -0.0000
     26 C          62.0163   80.6310   13.1568 C.ar    1  UNL1       -0.0000
     27 C          63.0804   80.9721   12.1561 C.ar    1  UNL1       -0.0000
     28 C          63.8791   82.2322   12.3106 C.ar    1  UNL1       -0.0000
     29 C          63.6138   83.1514   13.4659 C.ar    1  UNL1       -0.0003
     30 C          64.4125   84.4116   13.6205 C.ar    1  UNL1       -0.0041
@<TRIPOS>UNITY_ATOM_ATTR
9 1
charge -1
@<TRIPOS>BOND
     1     9    10   ar
     2    10    11   ar
     3    10     8    1
     4     8     7    1
     5     7     1    1
     6     1     2   ar
     7     2     3   ar
     8     3     4   ar
     9     4    12    1
    10    12    13    1
    11    13    14   ar
    12    14    15   ar
    13    15    16   ar
    14    16    17   ar
    15     4     5   ar
    16     5     6   ar
    17     6    18    1
    18    18    19    1
    19    19    20    1
    20    20    21    1
    21    21    22   ar
    22    22    23   ar
    23    23    24   ar
    24    24    25   ar
    25    25    26   ar
    26    26    27   ar
    27    27    28   ar
    28    28    29   ar
    29    29    30   ar
    30     6     1   ar
    31    30    21   ar
    32    17    13   ar
    33    29    24   ar
@<TRIPOS>MOLECULE
*****
 30 33 0 0 0
SMALL
GASTEIGER

@<TRIPOS>ATOM
      1 C          63.3717   83.3563   11.2485 C.ar    1  UNL1        0.0121
      2 C          63.6407   83.5918    9.7917 C.ar    1  UNL1       -0.0015
      3 C          63.1694   84.8564    9.1369 C.ar    1  UNL1       -0.0025
      4 C          62.4293   85.8854    9.9388 C.ar    1  UNL1        0.0051
      5 C          62.1604   85.6499   11.3956 C.ar    1  UNL1        0.0342
      6 C          62.6316   84.3854   12.0505 C.ar    1  UNL1        0.1343
      7 C          63.8430   82.0917   11.9033 C.3     1  UNL1        0.0353
      8 C          62.8994   80.9380   12.0725 C.3     1  UNL1        0.0465
      9 O          63.3470   79.9882   14.4489 O.co2   1  UNL1       -0.5492
     10 C          62.4026   80.5698   13.4390 C.2     1  UNL1        0.0507
     11 O          60.9612   80.7830   13.7957 O.co2   1  UNL1       -0.5492
     12 C          61.9580   87.1500    9.2840 C.3     1  UNL1        0.1539
     13 N          61.5972   88.3397   10.1233 N.ar    1  UNL1       -0.2449
     14 C          62.4976   89.4943   10.4495 C.ar    1  UNL1        0.0971
     15 C          61.7296   90.4519   11.3115 C.ar    1  UNL1        0.0427
     16 C          60.3545   89.8892   11.5180 C.ar    1  UNL1        0.1217
     17 N          60.2727   88.5839   10.7837 N.ar    1  UNL1       -0.1673
     18 O          62.3627   84.1499   13.5072 O.3     1  UNL1       -0.4754
     19 C          63.4143   83.5202   14.3718 C.3     1  UNL1        0.2100
     20 C          64.4591   84.3756   15.0252 C.3     1  UNL1        0.0736
     21 C          64.1213   85.7706   15.4609 C.ar    1  UNL1       -0.0184
     22 C          63.3590   85.9950   16.7331 C.ar    1  UNL1       -0.0041
     23 C          63.0211   87.3900   17.1689 C.ar    1  UNL1       -0.0003
     24 C          63.4457   88.5606   16.3325 C.ar    1  UNL1       -0.0000
     25 C          63.1079   89.9555   16.7683 C.ar    1  UNL1       -0.0000
     26 C          63.5324   91.1260   15.9319 C.ar    1  UNL1       -0.0000
     27 C          64.2947   90.9016   14.6597 C.ar    1  UNL1       -0.0000
     28 C          64.6325   89.5067   14.2239 C.ar    1  UNL1       -0.0000
     29 C          64.2080   88.3362   15.0603 C.ar    1  UNL1       -0.0003
     30 C          64.5458   86.9411   14.6245 C.ar    1  UNL1       -0.0041
@<TRIPOS>UNITY_ATOM_ATTR
9 1
charge -1
@<TRIPOS>BOND
     1     9    10   ar
     2    10    11   ar
     3    10     8    1
     4     8     7    1
     5     7     1    1
     6     1     2   ar
     7     2     3   ar
     8     3     4   ar
     9     4    12    1
    10    12    13    1
    11    13    14   ar
    12    14    15   ar
    13    15    16   ar
    14    16    17   ar
    15     4     5   ar
    16     5     6   ar
    17     6    18    1
    18    18    19    1
    19    19    20    1
    20    20    21    1
    21    21    22   ar
    22    22    23   ar
    23    23    24   ar
    24    24    25   ar
    25    25    26   ar
    26    26    27   ar
    27    27    28   ar
    28    28    29   ar
    29    29    30   ar
    30     6     1   ar
    31    30    21   ar
    32    17    13   ar
    33    29    24   ar
@<TRIPOS>MOLECULE
*****
 30 33 0 0 0
SMALL
GASTEIGER

@<TRIPOS>ATOM
      1 C          63.0490   84.9337    9.4837 C.ar    1  UNL1        0.0121
      2 C          63.8357   83.7091    9.8461 C.ar    1  UNL1       -0.0015
      3 C          63.8280   83.2033   11.2582 C.ar    1  UNL1       -0.0025
      4 C          63.0335   83.9222   12.3079 C.ar    1  UNL1        0.0051
      5 C          62.2468   85.1468   11.9455 C.ar    1  UNL1        0.0342
      6 C          62.2545   85.6526   10.5334 C.ar    1  UNL1        0.1343
      7 C          63.0568   85.4395    8.0715 C.3     1  UNL1        0.0353
      8 C          62.7414   84.5075    6.9393 C.3     1  UNL1        0.0465
      9 O          60.2373   85.1996    6.9655 O.co2   1  UNL1       -0.5492
     10 C          61.4059   84.5776    6.2600 C.2     1  UNL1        0.0507
     11 O          61.2388   84.0258    4.8752 O.co2   1  UNL1       -0.5492
     12 C          63.0257   83.4164   13.7201 C.3     1  UNL1        0.1539
     13 N          63.0296   84.3865   14.8642 N.ar    1  UNL1       -0.2449
     14 C          64.1816   85.2509   15.2833 C.ar    1  UNL1        0.0971
     15 C          63.7461   86.0611   16.4681 C.ar    1  UNL1        0.0427
     16 C          62.3249   85.6974   16.7814 C.ar    1  UNL1        0.1217
     17 N          61.8821   84.6624   15.7901 N.ar    1  UNL1       -0.1673
     18 O          61.4678   86.8773   10.1711 O.3     1  UNL1       -0.4754
     19 C          62.1210   88.2270   10.2097 C.3     1  UNL1        0.2100
     20 C          62.0168   89.0757   11.4421 C.3     1  UNL1        0.0736
     21 C          63.0517   90.1256   11.7194 C.ar    1  UNL1       -0.0184
     22 C          63.4749   91.0674   10.6313 C.ar    1  UNL1       -0.0041
     23 C          64.5097   92.1172   10.9086 C.ar    1  UNL1       -0.0003
     24 C          65.1213   92.2254   12.2740 C.ar    1  UNL1       -0.0000
     25 C          66.1561   93.2752   12.5512 C.ar    1  UNL1       -0.0000
     26 C          66.7677   93.3833   13.9166 C.ar    1  UNL1       -0.0000
     27 C          66.3445   92.4415   15.0047 C.ar    1  UNL1       -0.0000
     28 C          65.3097   91.3917   14.7274 C.ar    1  UNL1       -0.0000
     29 C          64.6981   91.2836   13.3621 C.ar    1  UNL1       -0.0003
     30 C          63.6633   90.2337   13.0847 C.ar    1  UNL1       -0.0041
@<TRIPOS>UNITY_ATOM_ATTR
9 1
charge -1
@<TRIPOS>BOND
     1     9    10   ar
     2    10    11   ar
     3    10     8    1
     4     8     7    1
     5     7     1    1
     6     1     2   ar
     7     2     3   ar
     8     3     4   ar
     9     4    12    1
    10    12    13    1
    11    13    14   ar
    12    14    15   ar
    13    15    16   ar
    14    16    17   ar
    15     4     5   ar
    16     5     6   ar
    17     6    18    1
    18    18    19    1
    19    19    20    1
    20    20    21    1
    21    21    22   ar
    22    22    23   ar
    23    23    24   ar
    24    24    25   ar
    25    25    26   ar
    26    26    27   ar
    27    27    28   ar
    28    28    29   ar
    29    29    30   ar
    30     6     1   ar
    31    30    21   ar
    32    17    13   ar
    33    29    24   ar
@<TRIPOS>MOLECULE
*****
 30 33 0 0 0
SMALL
GASTEIGER

@<TRIPOS>ATOM
      1 C          64.5158   91.1317   13.6214 C.ar    1  UNL1        0.0121
      2 C          64.8601   91.7395   12.2940 C.ar    1  UNL1       -0.0015
      3 C          64.0106   91.4479   11.0926 C.ar    1  UNL1       -0.0025
      4 C          62.8168   90.5486   11.2187 C.ar    1  UNL1        0.0051
      5 C          62.4724   89.9409   12.5461 C.ar    1  UNL1        0.0342
      6 C          63.3219   90.2324   13.7474 C.ar    1  UNL1        0.1343
      7 C          65.3653   91.4233   14.8228 C.3     1  UNL1        0.0353
      8 C          66.3070   92.5908   14.8099 C.3     1  UNL1        0.0465
      9 O          68.3900   92.1739   13.3142 O.co2   1  UNL1       -0.5492
     10 C          67.7831   92.3622   14.6729 C.2     1  UNL1        0.0507
     11 O          68.6524   92.3219   15.8947 O.co2   1  UNL1       -0.5492
     12 C          61.9672   90.2570   10.0173 C.3     1  UNL1        0.1539
     13 N          61.4888   88.8591    9.7585 N.ar    1  UNL1       -0.2449
     14 C          62.2951   87.6057    9.9277 C.ar    1  UNL1        0.0971
     15 C          61.4247   86.4412    9.5588 C.ar    1  UNL1        0.0427
     16 C          60.0802   86.9749    9.1616 C.ar    1  UNL1        0.1217
     17 N          60.1199   88.4692    9.2850 N.ar    1  UNL1       -0.1673
     18 O          62.9776   89.6247   15.0749 O.3     1  UNL1       -0.4754
     19 C          63.7909   88.4842   15.6112 C.3     1  UNL1        0.2100
     20 C          64.3977   87.4873   14.6688 C.3     1  UNL1        0.0736
     21 C          63.8418   86.0963   14.5885 C.ar    1  UNL1       -0.0184
     22 C          63.3291   85.4210   15.8259 C.ar    1  UNL1       -0.0041
     23 C          62.7733   84.0301   15.7456 C.ar    1  UNL1       -0.0003
     24 C          62.7302   83.3145   14.4280 C.ar    1  UNL1       -0.0000
     25 C          62.1744   81.9236   14.3477 C.ar    1  UNL1       -0.0000
     26 C          62.1313   81.2081   13.0301 C.ar    1  UNL1       -0.0000
     27 C          62.6440   81.8835   11.7928 C.ar    1  UNL1       -0.0000
     28 C          63.1998   83.2743   11.8730 C.ar    1  UNL1       -0.0000
     29 C          63.2429   83.9899   13.1906 C.ar    1  UNL1       -0.0003
     30 C          63.7987   85.3808   13.2709 C.ar    1  UNL1       -0.0041
@<TRIPOS>UNITY_ATOM_ATTR
9 1
charge -1
@<TRIPOS>BOND
     1     9    10   ar
     2    10    11   ar
     3    10     8    1
     4     8     7    1
     5     7     1    1
     6     1     2   ar
     7     2     3   ar
     8     3     4   ar
     9     4    12    1
    10    12    13    1
    11    13    14   ar
    12    14    15   ar
    13    15    16   ar
    14    16    17   ar
    15     4     5   ar
    16     5     6   ar
    17     6    18    1
    18    18    19    1
    19    19    20    1
    20    20    21    1
    21    21    22   ar
    22    22    23   ar
    23    23    24   ar
    24    24    25   ar
    25    25    26   ar
    26    26    27   ar
    27    27    28   ar
    28    28    29   ar
    29    29    30   ar
    30     6     1   ar
    31    30    21   ar
    32    17    13   ar
    33    29    24   ar
@<TRIPOS>MOLECULE
*****
 30 33 0 0 0
SMALL
GASTEIGER

@<TRIPOS>ATOM
      1 C          62.4574   85.6446    9.3786 C.ar    1  UNL1        0.0121
      2 C          63.3536   84.4565    9.1905 C.ar    1  UNL1       -0.0015
      3 C          63.7718   83.6375   10.3754 C.ar    1  UNL1       -0.0025
      4 C          63.2939   84.0064   11.7485 C.ar    1  UNL1        0.0051
      5 C          62.3977   85.1945   11.9366 C.ar    1  UNL1        0.0342
      6 C          61.9794   86.0136   10.7517 C.ar    1  UNL1        0.1343
      7 C          62.0392   86.4637    8.1935 C.3     1  UNL1        0.0353
      8 C          60.6946   86.2432    7.5663 C.3     1  UNL1        0.0465
      9 O          58.1665   86.7169    7.9325 O.co2   1  UNL1       -0.5492
     10 C          59.5785   87.2114    7.8250 C.2     1  UNL1        0.0507
     11 O          59.8745   88.6742    7.9763 O.co2   1  UNL1       -0.5492
     12 C          63.7121   83.1873   12.9335 C.3     1  UNL1        0.1539
     13 N          62.9242   81.9709   13.3202 N.ar    1  UNL1       -0.2449
     14 C          61.7404   81.9431   14.2409 C.ar    1  UNL1        0.0971
     15 C          61.2663   80.5237   14.3437 C.ar    1  UNL1        0.0427
     16 C          62.1572   79.6742   13.4865 C.ar    1  UNL1        0.1217
     17 N          63.1818   80.5687   12.8539 N.ar    1  UNL1       -0.1673
     18 O          61.0832   87.2016   10.9398 O.3     1  UNL1       -0.4754
     19 C          61.6284   88.4653   11.5362 C.3     1  UNL1        0.2100
     20 C          62.2026   89.5278   10.6465 C.3     1  UNL1        0.0736
     21 C          63.2194   90.4893   11.1866 C.ar    1  UNL1       -0.0184
     22 C          63.8119   91.5361   10.2903 C.ar    1  UNL1       -0.0041
     23 C          64.8287   92.4976   10.8303 C.ar    1  UNL1       -0.0003
     24 C          65.2529   92.4125   12.2666 C.ar    1  UNL1       -0.0000
     25 C          66.2697   93.3740   12.8066 C.ar    1  UNL1       -0.0000
     26 C          66.6939   93.2888   14.2428 C.ar    1  UNL1       -0.0000
     27 C          66.1014   92.2421   15.1390 C.ar    1  UNL1       -0.0000
     28 C          65.0846   91.2805   14.5990 C.ar    1  UNL1       -0.0000
     29 C          64.6604   91.3657   13.1628 C.ar    1  UNL1       -0.0003
     30 C          63.6436   90.4041   12.6228 C.ar    1  UNL1       -0.0041
@<TRIPOS>UNITY_ATOM_ATTR
9 1
charge -1
@<TRIPOS>BOND
     1     9    10   ar
     2    10    11   ar
     3    10     8    1
     4     8     7    1
     5     7     1    1
     6     1     2   ar
     7     2     3   ar
     8     3     4   ar
     9     4    12    1
    10    12    13    1
    11    13    14   ar
    12    14    15   ar
    13    15    16   ar
    14    16    17   ar
    15     4     5   ar
    16     5     6   ar
    17     6    18    1
    18    18    19    1
    19    19    20    1
    20    20    21    1
    21    21    22   ar
    22    22    23   ar
    23    23    24   ar
    24    24    25   ar
    25    25    26   ar
    26    26    27   ar
    27    27    28   ar
    28    28    29   ar
    29    29    30   ar
    30     6     1   ar
    31    30    21   ar
    32    17    13   ar
    33    29    24   ar
