@<TRIPOS>MOLECULE
*****
 41 44 0 0 0
SMALL
GASTEIGER

@<TRIPOS>ATOM
      1 C          66.8403   92.8756   13.1496 C.2     1  UNL1        0.2683
      2 O          67.8860   93.0971   14.2019 O.2     1  UNL1       -0.2682
      3 N          65.6760   91.9718   13.4278 N.am    1  UNL1       -0.2740
      4 C          65.4246   91.2253   14.7044 C.3     1  UNL1        0.1032
      5 C          64.1517   90.4480   14.5439 C.3     1  UNL1        0.1021
      6 C          63.6165   90.7140   13.1681 C.3     1  UNL1        0.0521
      7 C          64.5585   91.6557   12.4783 C.3     1  UNL1        0.0986
      8 C          62.3600   90.1392   12.5845 C.ar    1  UNL1       -0.0241
      9 C          61.2506   89.6895   13.4884 C.ar    1  UNL1       -0.0022
     10 C          59.9940   89.1146   12.9049 C.ar    1  UNL1        0.0293
     11 C          59.8467   88.9896   11.4174 C.ar    1  UNL1        0.1398
     12 F          58.5901   88.4148   10.8338 F       1  UNL1       -0.2042
     13 C          60.9561   89.4394   10.5135 C.ar    1  UNL1        0.0251
     14 C          62.2127   90.0142   11.0970 C.ar    1  UNL1       -0.0235
     15 C          63.3219   90.4639   10.1931 C.3     1  UNL1        0.0308
     16 C          67.3150   95.6046    7.8273 C.3     1  UNL1        0.0538
     17 C          67.1963   94.9224    9.1579 C.ar    1  UNL1        0.0785
     18 C          67.8416   93.5859    9.3756 C.ar    1  UNL1        0.1137
     19 N          67.7229   92.9036   10.7062 N.ar    1  UNL1       -0.2364
     20 C          66.9590   93.5578   11.8190 C.ar    1  UNL1        0.1537
     21 C          66.3137   94.8943   11.6013 C.ar    1  UNL1        0.1221
     22 N          66.4324   95.5766   10.2707 N.ar    1  UNL1       -0.2448
     23 C          63.5243   89.5604   15.5776 C.2     1  UNL1        0.2275
     24 O          62.7205   90.1602   16.6929 O.2     1  UNL1       -0.2748
     25 N          63.7008   88.0731   15.4960 N.am    1  UNL1       -0.2736
     26 C          63.0734   87.1856   16.5298 C.3     1  UNL1        0.1152
     27 C          64.5047   87.4733   14.3807 C.3     1  UNL1        0.1202
     28 C          63.9381   86.3455   13.5701 C.ar    1  UNL1       -0.0024
     29 C          64.1533   84.9264   14.0061 C.ar    1  UNL1        0.0012
     30 C          63.5867   83.7987   13.1955 C.ar    1  UNL1        0.0711
     31 C          62.8048   84.0899   11.9489 C.ar    1  UNL1        0.0077
     32 C          62.5896   85.5088   11.5130 C.ar    1  UNL1        0.0711
     33 C          63.1563   86.6367   12.3236 C.ar    1  UNL1        0.0012
     34 C          63.8019   82.3797   13.6315 C.3     1  UNL1        0.4186
     35 F          64.0171   80.9607   14.0675 F       1  UNL1       -0.1659
     36 F          62.8627   82.5906   14.7817 F       1  UNL1       -0.1659
     37 F          64.7412   82.1687   12.4812 F       1  UNL1       -0.1659
     38 C          61.8078   85.8001   10.2664 C.3     1  UNL1        0.4186
     39 F          61.0259   86.0915    9.0199 F       1  UNL1       -0.1659
     40 F          60.6346   86.2215   11.1008 F       1  UNL1       -0.1659
     41 F          62.9809   85.3788    9.4320 F       1  UNL1       -0.1659
@<TRIPOS>BOND
     1    16    17    1
     2    17    18   ar
     3    18    19   ar
     4    19    20   ar
     5    20     1    1
     6     1     2    2
     7     1     3   am
     8     3     4    1
     9     4     5    1
    10     5    23    1
    11    23    24    2
    12    23    25   am
    13    25    26    1
    14    25    27    1
    15    27    28    1
    16    28    29   ar
    17    29    30   ar
    18    30    34    1
    19    34    35    1
    20    34    36    1
    21    34    37    1
    22    30    31   ar
    23    31    32   ar
    24    32    38    1
    25    38    39    1
    26    38    40    1
    27    38    41    1
    28    32    33   ar
    29     5     6    1
    30     6     8    1
    31     8     9   ar
    32     9    10   ar
    33    10    11   ar
    34    11    12    1
    35    11    13   ar
    36    13    14   ar
    37    14    15    1
    38     6     7    1
    39    20    21   ar
    40    21    22   ar
    41    22    17   ar
    42     7     3    1
    43    33    28   ar
    44    14     8   ar
@<TRIPOS>MOLECULE
*****
 41 44 0 0 0
SMALL
GASTEIGER

@<TRIPOS>ATOM
      1 C          66.8324   92.8828   13.1450 C.2     1  UNL1        0.2683
      2 O          67.8802   93.1063   14.1948 O.2     1  UNL1       -0.2682
      3 N          65.6735   91.9722   13.4239 N.am    1  UNL1       -0.2740
      4 C          65.4299   91.2204   14.6988 C.3     1  UNL1        0.1032
      5 C          64.1605   90.4371   14.5397 C.3     1  UNL1        0.1021
      6 C          63.6197   90.7048   13.1664 C.3     1  UNL1        0.0521
      7 C          64.5547   91.6535   12.4768 C.3     1  UNL1        0.0986
      8 C          62.3643   90.1255   12.5848 C.ar    1  UNL1       -0.0241
      9 C          61.2509   89.6879   13.4898 C.ar    1  UNL1       -0.0022
     10 C          59.9954   89.1086   12.9083 C.ar    1  UNL1        0.0293
     11 C          59.8533   88.9668   11.4217 C.ar    1  UNL1        0.1398
     12 F          58.5979   88.3875   10.8401 F       1  UNL1       -0.2042
     13 C          60.9667   89.4044   10.5168 C.ar    1  UNL1        0.0251
     14 C          62.2222   89.9838   11.0983 C.ar    1  UNL1       -0.0235
     15 C          63.3355   90.4213   10.1934 C.3     1  UNL1        0.0308
     16 C          67.2767   95.6314    7.8301 C.3     1  UNL1        0.0538
     17 C          67.1656   94.9443    9.1588 C.ar    1  UNL1        0.0785
     18 C          67.8332   93.6187    9.3758 C.ar    1  UNL1        0.1137
     19 N          67.7221   92.9315   10.7045 N.ar    1  UNL1       -0.2364
     20 C          66.9434   93.5700   11.8163 C.ar    1  UNL1        0.1537
     21 C          66.2759   94.8955   11.5993 C.ar    1  UNL1        0.1221
     22 N          66.3869   95.5827   10.2706 N.ar    1  UNL1       -0.2448
     23 C          63.5408   89.5430   15.5725 C.2     1  UNL1        0.2275
     24 O          62.7522   90.1362   16.7021 O.2     1  UNL1       -0.2748
     25 N          63.7098   88.0557   15.4756 N.am    1  UNL1       -0.2736
     26 C          63.0901   87.1617   16.5084 C.3     1  UNL1        0.1152
     27 C          64.4985   87.4625   14.3460 C.3     1  UNL1        0.1202
     28 C          63.9292   86.3261   13.5494 C.ar    1  UNL1       -0.0024
     29 C          63.1335   86.6044   12.3086 C.ar    1  UNL1        0.0012
     30 C          62.5642   85.4680   11.5121 C.ar    1  UNL1        0.0711
     31 C          62.7907   84.0533   11.9563 C.ar    1  UNL1        0.0077
     32 C          63.5863   83.7749   13.1969 C.ar    1  UNL1        0.0711
     33 C          64.1556   84.9114   13.9935 C.ar    1  UNL1        0.0012
     34 C          61.7686   85.7463   10.2714 C.3     1  UNL1        0.4186
     35 F          60.9729   86.0247    9.0306 F       1  UNL1       -0.1659
     36 F          62.9119   85.2625    9.4296 F       1  UNL1       -0.1659
     37 F          60.6252   86.2301   11.1132 F       1  UNL1       -0.1659
     38 C          63.8128   82.3602   13.6412 C.3     1  UNL1        0.4186
     39 F          64.0393   80.9455   14.0853 F       1  UNL1       -0.1659
     40 F          64.7364   82.1434   12.4793 F       1  UNL1       -0.1659
     41 F          62.8891   82.5771   14.8030 F       1  UNL1       -0.1659
@<TRIPOS>BOND
     1    16    17    1
     2    17    18   ar
     3    18    19   ar
     4    19    20   ar
     5    20     1    1
     6     1     2    2
     7     1     3   am
     8     3     4    1
     9     4     5    1
    10     5    23    1
    11    23    24    2
    12    23    25   am
    13    25    26    1
    14    25    27    1
    15    27    28    1
    16    28    29   ar
    17    29    30   ar
    18    30    34    1
    19    34    35    1
    20    34    36    1
    21    34    37    1
    22    30    31   ar
    23    31    32   ar
    24    32    38    1
    25    38    39    1
    26    38    40    1
    27    38    41    1
    28    32    33   ar
    29     5     6    1
    30     6     8    1
    31     8     9   ar
    32     9    10   ar
    33    10    11   ar
    34    11    12    1
    35    11    13   ar
    36    13    14   ar
    37    14    15    1
    38     6     7    1
    39    20    21   ar
    40    21    22   ar
    41    22    17   ar
    42     7     3    1
    43    33    28   ar
    44    14     8   ar
@<TRIPOS>MOLECULE
*****
 41 44 0 0 0
SMALL
GASTEIGER

@<TRIPOS>ATOM
      1 C          65.4635   92.5878   12.6432 C.2     1  UNL1        0.2683
      2 O          65.0870   93.6207   11.6229 O.2     1  UNL1       -0.2682
      3 N          64.5573   91.4200   12.8980 N.am    1  UNL1       -0.2740
      4 C          63.2495   91.1531   12.2135 C.3     1  UNL1        0.1032
      5 C          62.6836   89.8821   12.7745 C.3     1  UNL1        0.1021
      6 C          63.6417   89.3636   13.8056 C.3     1  UNL1        0.0521
      7 C          64.7996   90.3140   13.8820 C.3     1  UNL1        0.0986
      8 C          63.4716   88.1141   14.6178 C.ar    1  UNL1       -0.0241
      9 C          63.6330   86.7708   13.9700 C.ar    1  UNL1       -0.0022
     10 C          63.4630   85.5212   14.7822 C.ar    1  UNL1        0.0293
     11 C          63.1315   85.6149   16.2421 C.ar    1  UNL1        0.1398
     12 F          62.9615   84.3653   17.0543 F       1  UNL1       -0.2042
     13 C          62.9702   86.9582   16.8899 C.ar    1  UNL1        0.0251
     14 C          63.1402   88.2078   16.0777 C.ar    1  UNL1       -0.0235
     15 C          62.9789   89.5510   16.7254 C.3     1  UNL1        0.0308
     16 C          70.5949   93.1270   15.7057 C.3     1  UNL1        0.0538
     17 C          69.3121   92.9922   14.9401 C.ar    1  UNL1        0.0785
     18 C          68.0948   93.7523   15.3764 C.ar    1  UNL1        0.1137
     19 N          66.8120   93.6175   14.6108 N.ar    1  UNL1       -0.2364
     20 C          66.7464   92.7226   13.4088 C.ar    1  UNL1        0.1537
     21 C          67.9636   91.9625   12.9725 C.ar    1  UNL1        0.1221
     22 N          69.2465   92.0973   13.7381 N.ar    1  UNL1       -0.2448
     23 C          61.3873   89.2422   12.3745 C.2     1  UNL1        0.2275
     24 O          60.1182   89.6118   13.0835 O.2     1  UNL1       -0.2748
     25 N          61.3601   88.2326   11.2655 N.am    1  UNL1       -0.2736
     26 C          60.0638   87.5926   10.8655 C.3     1  UNL1        0.1152
     27 C          62.6292   87.8629   10.5564 C.3     1  UNL1        0.1202
     28 C          62.7823   86.4969    9.9560 C.ar    1  UNL1       -0.0024
     29 C          62.3839   86.2554    8.5301 C.ar    1  UNL1        0.0012
     30 C          62.5371   84.8893    7.9298 C.ar    1  UNL1        0.0711
     31 C          63.0887   83.7648    8.7552 C.ar    1  UNL1        0.0077
     32 C          63.4871   84.0063   10.1809 C.ar    1  UNL1        0.0711
     33 C          63.3339   85.3724   10.7813 C.ar    1  UNL1        0.0012
     34 C          62.1387   84.6478    6.5040 C.3     1  UNL1        0.4186
     35 F          61.7402   84.4063    5.0782 F       1  UNL1       -0.1659
     36 F          60.7018   84.8801    6.8661 F       1  UNL1       -0.1659
     37 F          63.5757   84.4154    6.1418 F       1  UNL1       -0.1659
     38 C          64.0387   82.8819   11.0064 C.3     1  UNL1        0.4186
     39 F          64.5903   81.7574   11.8318 F       1  UNL1       -0.1659
     40 F          63.5745   81.8969    9.9746 F       1  UNL1       -0.1659
     41 F          64.5029   83.8668   12.0381 F       1  UNL1       -0.1659
@<TRIPOS>BOND
     1    16    17    1
     2    17    18   ar
     3    18    19   ar
     4    19    20   ar
     5    20     1    1
     6     1     2    2
     7     1     3   am
     8     3     4    1
     9     4     5    1
    10     5    23    1
    11    23    24    2
    12    23    25   am
    13    25    26    1
    14    25    27    1
    15    27    28    1
    16    28    29   ar
    17    29    30   ar
    18    30    34    1
    19    34    35    1
    20    34    36    1
    21    34    37    1
    22    30    31   ar
    23    31    32   ar
    24    32    38    1
    25    38    39    1
    26    38    40    1
    27    38    41    1
    28    32    33   ar
    29     5     6    1
    30     6     8    1
    31     8     9   ar
    32     9    10   ar
    33    10    11   ar
    34    11    12    1
    35    11    13   ar
    36    13    14   ar
    37    14    15    1
    38     6     7    1
    39    20    21   ar
    40    21    22   ar
    41    22    17   ar
    42     7     3    1
    43    33    28   ar
    44    14     8   ar
@<TRIPOS>MOLECULE
*****
 41 44 0 0 0
SMALL
GASTEIGER

@<TRIPOS>ATOM
      1 C          65.4934   92.6091   12.6246 C.2     1  UNL1        0.2683
      2 O          65.1251   93.6284   11.5877 O.2     1  UNL1       -0.2682
      3 N          64.5812   91.4490   12.8932 N.am    1  UNL1       -0.2740
      4 C          63.2748   91.1776   12.2078 C.3     1  UNL1        0.1032
      5 C          62.7014   89.9175   12.7853 C.3     1  UNL1        0.1021
      6 C          63.6534   89.4102   13.8276 C.3     1  UNL1        0.0521
      7 C          64.8152   90.3567   13.8943 C.3     1  UNL1        0.0986
      8 C          63.4750   88.1736   14.6575 C.ar    1  UNL1       -0.0241
      9 C          63.6177   86.8201   14.0269 C.ar    1  UNL1       -0.0022
     10 C          63.4393   85.5833   14.8567 C.ar    1  UNL1        0.0293
     11 C          63.1181   85.7002   16.3174 C.ar    1  UNL1        0.1398
     12 F          62.9397   84.4635   17.1473 F       1  UNL1       -0.2042
     13 C          62.9754   87.0537   16.9480 C.ar    1  UNL1        0.0251
     14 C          63.1538   88.2904   16.1180 C.ar    1  UNL1       -0.0235
     15 C          63.0110   89.6438   16.7487 C.3     1  UNL1        0.0308
     16 C          70.6157   93.1717   15.6981 C.3     1  UNL1        0.0538
     17 C          69.3351   93.0311   14.9297 C.ar    1  UNL1        0.0785
     18 C          68.1110   93.7785   15.3689 C.ar    1  UNL1        0.1137
     19 N          66.8304   93.6378   14.6005 N.ar    1  UNL1       -0.2364
     20 C          66.7740   92.7497   13.3930 C.ar    1  UNL1        0.1537
     21 C          67.9981   92.0023   12.9538 C.ar    1  UNL1        0.1221
     22 N          69.2787   92.1430   13.7222 N.ar    1  UNL1       -0.2448
     23 C          61.4038   89.2772   12.3900 C.2     1  UNL1        0.2275
     24 O          60.1344   89.6596   13.0915 O.2     1  UNL1       -0.2748
     25 N          61.3757   88.2545   11.2930 N.am    1  UNL1       -0.2736
     26 C          60.0782   87.6142   10.8976 C.3     1  UNL1        0.1152
     27 C          62.6452   87.8721   10.5914 C.3     1  UNL1        0.1202
     28 C          62.7885   86.5044    9.9925 C.ar    1  UNL1       -0.0024
     29 C          63.3119   85.3720   10.8254 C.ar    1  UNL1        0.0012
     30 C          63.4551   84.0042   10.2263 C.ar    1  UNL1        0.0711
     31 C          63.0749   83.7689    8.7945 C.ar    1  UNL1        0.0077
     32 C          62.5515   84.9013    7.9617 C.ar    1  UNL1        0.0711
     33 C          62.4083   86.2691    8.5607 C.ar    1  UNL1        0.0012
     34 C          63.9785   82.8718   11.0592 C.3     1  UNL1        0.4186
     35 F          64.5019   81.7394   11.8921 F       1  UNL1       -0.1659
     36 F          64.3942   83.8454   12.1217 F       1  UNL1       -0.1659
     37 F          63.5628   81.8981    9.9966 F       1  UNL1       -0.1659
     38 C          62.1713   84.6660    6.5299 C.3     1  UNL1        0.4186
     39 F          61.7910   84.4308    5.0981 F       1  UNL1       -0.1659
     40 F          60.7290   84.8900    6.8762 F       1  UNL1       -0.1659
     41 F          63.6134   84.4420    6.1836 F       1  UNL1       -0.1659
@<TRIPOS>BOND
     1    16    17    1
     2    17    18   ar
     3    18    19   ar
     4    19    20   ar
     5    20     1    1
     6     1     2    2
     7     1     3   am
     8     3     4    1
     9     4     5    1
    10     5    23    1
    11    23    24    2
    12    23    25   am
    13    25    26    1
    14    25    27    1
    15    27    28    1
    16    28    29   ar
    17    29    30   ar
    18    30    34    1
    19    34    35    1
    20    34    36    1
    21    34    37    1
    22    30    31   ar
    23    31    32   ar
    24    32    38    1
    25    38    39    1
    26    38    40    1
    27    38    41    1
    28    32    33   ar
    29     5     6    1
    30     6     8    1
    31     8     9   ar
    32     9    10   ar
    33    10    11   ar
    34    11    12    1
    35    11    13   ar
    36    13    14   ar
    37    14    15    1
    38     6     7    1
    39    20    21   ar
    40    21    22   ar
    41    22    17   ar
    42     7     3    1
    43    33    28   ar
    44    14     8   ar
