@<TRIPOS>MOLECULE
*****
 32 36 0 0 0
SMALL
GASTEIGER

@<TRIPOS>ATOM
      1 C          60.6578   93.1866   -0.1571 C.ar    1  UNL1        0.1636
      2 N          61.7800   93.2392   -1.1510 N.ar    1  UNL1       -0.2264
      3 C          61.5246   93.7300   -2.5452 C.ar    1  UNL1        0.0872
      4 C          60.1469   94.1681   -2.9456 C.ar    1  UNL1        0.0535
      5 C          59.0247   94.1155   -1.9516 C.ar    1  UNL1        0.1349
      6 N          59.2802   93.6247   -0.5573 N.ar    1  UNL1       -0.2119
      7 C          63.7841   90.8996    3.3064 C.3     1  UNL1        0.0521
      8 C          62.4764   91.5523    2.9689 C.ar    1  UNL1        0.0591
      9 C          62.2209   92.0431    1.5747 C.ar    1  UNL1        0.0178
     10 C          60.9133   92.6958    1.2372 C.ar    1  UNL1        0.0382
     11 C          59.8611   92.8578    2.2939 C.ar    1  UNL1        0.0178
     12 C          60.1166   92.3670    3.6881 C.ar    1  UNL1        0.0591
     13 C          59.0644   92.5290    4.7449 C.3     1  UNL1        0.0521
     14 N          61.4243   91.7143    4.0256 N.ar    1  UNL1       -0.2540
     15 C          62.6467   93.7826   -3.5392 C.ar    1  UNL1        0.0370
     16 C          63.5983   92.6292   -3.6578 C.ar    1  UNL1        0.0046
     17 C          64.7205   92.6818   -4.6517 C.ar    1  UNL1        0.0207
     18 C          64.8911   93.8879   -5.5271 C.ar    1  UNL1        0.0989
     19 N          63.9395   95.0414   -5.4085 N.ar    1  UNL1       -0.2423
     20 C          62.8173   94.9887   -4.4146 C.ar    1  UNL1        0.1003
     21 N          57.6471   94.5536   -2.3519 N.pl3   1  UNL1       -0.2931
     22 C          56.4618   94.1469   -1.5276 C.3     1  UNL1        0.0935
     23 C          55.0841   94.5850   -1.9279 C.3     1  UNL1        0.0375
     24 C          54.8919   95.4298   -3.1524 C.3     1  UNL1        0.0611
     25 C          56.0773   95.8364   -3.9767 C.3     1  UNL1        0.0375
     26 C          57.4549   95.3983   -3.5764 C.3     1  UNL1        0.0935
     27 N          53.5143   95.8679   -3.5526 N.3     1  UNL1       -0.2696
     28 C          52.4381   95.9987   -2.5160 C.3     1  UNL1        0.1046
     29 C          51.0604   96.4368   -2.9162 C.3     1  UNL1        0.1595
     30 O          50.7590   96.7441   -4.3532 O.3     1  UNL1       -0.3508
     31 C          51.8353   96.6133   -5.3898 C.3     1  UNL1        0.1595
     32 C          53.2129   96.1752   -4.9896 C.3     1  UNL1        0.1046
@<TRIPOS>BOND
     1     7     8    1
     2     8     9   ar
     3     9    10   ar
     4    10     1    1
     5     1     2   ar
     6     2     3   ar
     7     3    15    1
     8    15    16   ar
     9    16    17   ar
    10    17    18   ar
    11    18    19   ar
    12    19    20   ar
    13     3     4   ar
    14     4     5   ar
    15     5    21    1
    16    21    22    1
    17    22    23    1
    18    23    24    1
    19    24    27    1
    20    27    28    1
    21    28    29    1
    22    29    30    1
    23    30    31    1
    24    31    32    1
    25    24    25    1
    26    25    26    1
    27     5     6   ar
    28    10    11   ar
    29    11    12   ar
    30    12    13    1
    31    12    14   ar
    32    14     8   ar
    33     6     1   ar
    34    20    15   ar
    35    26    21    1
    36    32    27    1
@<TRIPOS>MOLECULE
*****
 32 36 0 0 0
SMALL
GASTEIGER

@<TRIPOS>ATOM
      1 C          60.6699   93.4002    0.0142 C.ar    1  UNL1        0.1636
      2 N          61.8144   93.6005   -0.9345 N.ar    1  UNL1       -0.2264
      3 C          61.5693   94.1919   -2.2910 C.ar    1  UNL1        0.0872
      4 C          60.1798   94.5829   -2.6989 C.ar    1  UNL1        0.0535
      5 C          59.0353   94.3825   -1.7502 C.ar    1  UNL1        0.1349
      6 N          59.2804   93.7911   -0.3936 N.ar    1  UNL1       -0.2119
      7 C          59.0410   92.3898    4.8439 C.3     1  UNL1        0.0521
      8 C          60.1006   92.3036    3.7856 C.ar    1  UNL1        0.0591
      9 C          59.8555   92.8950    2.4291 C.ar    1  UNL1        0.0178
     10 C          60.9150   92.8088    1.3708 C.ar    1  UNL1        0.0382
     11 C          62.2196   92.1313    1.6691 C.ar    1  UNL1        0.0178
     12 C          62.4647   91.5400    3.0256 C.ar    1  UNL1        0.0591
     13 C          63.7694   90.8625    3.3239 C.3     1  UNL1        0.0521
     14 N          61.4052   91.6262    4.0839 N.ar    1  UNL1       -0.2540
     15 C          62.7138   94.3922   -3.2398 C.ar    1  UNL1        0.0370
     16 C          62.7604   93.6295   -4.5305 C.ar    1  UNL1        0.0046
     17 C          63.9048   93.8299   -5.4792 C.ar    1  UNL1        0.0207
     18 C          65.0027   94.7930   -5.1372 C.ar    1  UNL1        0.0989
     19 N          64.9562   95.5558   -3.8464 N.ar    1  UNL1       -0.2423
     20 C          63.8117   95.3554   -2.8977 C.ar    1  UNL1        0.1003
     21 N          57.6458   94.7734   -2.1580 N.pl3   1  UNL1       -0.2931
     22 C          57.4385   95.8798   -3.1495 C.3     1  UNL1        0.0935
     23 C          56.0489   96.2708   -3.5574 C.3     1  UNL1        0.0375
     24 C          54.8667   95.5554   -2.9737 C.3     1  UNL1        0.0611
     25 C          55.0741   94.4490   -1.9822 C.3     1  UNL1        0.0375
     26 C          56.4636   94.0581   -1.5744 C.3     1  UNL1        0.0935
     27 N          53.4772   95.9464   -3.3815 N.3     1  UNL1       -0.2696
     28 C          53.1499   96.1480   -4.8314 C.3     1  UNL1        0.1046
     29 C          51.7603   96.5390   -5.2393 C.3     1  UNL1        0.1595
     30 O          50.6981   96.7283   -4.1972 O.3     1  UNL1       -0.3508
     31 C          51.0255   96.5266   -2.7473 C.3     1  UNL1        0.1595
     32 C          52.4150   96.1357   -2.3395 C.3     1  UNL1        0.1046
@<TRIPOS>BOND
     1     7     8    1
     2     8     9   ar
     3     9    10   ar
     4    10     1    1
     5     1     2   ar
     6     2     3   ar
     7     3    15    1
     8    15    16   ar
     9    16    17   ar
    10    17    18   ar
    11    18    19   ar
    12    19    20   ar
    13     3     4   ar
    14     4     5   ar
    15     5    21    1
    16    21    22    1
    17    22    23    1
    18    23    24    1
    19    24    27    1
    20    27    28    1
    21    28    29    1
    22    29    30    1
    23    30    31    1
    24    31    32    1
    25    24    25    1
    26    25    26    1
    27     5     6   ar
    28    10    11   ar
    29    11    12   ar
    30    12    13    1
    31    12    14   ar
    32    14     8   ar
    33     6     1   ar
    34    20    15   ar
    35    26    21    1
    36    32    27    1
@<TRIPOS>MOLECULE
*****
 32 36 0 0 0
SMALL
GASTEIGER

@<TRIPOS>ATOM
      1 C          62.3380   85.6569   11.6042 C.ar    1  UNL1        0.1636
      2 N          61.3751   86.0352   10.5181 N.ar    1  UNL1       -0.2264
      3 C          61.2373   87.4704   10.1045 C.ar    1  UNL1        0.0872
      4 C          62.0624   88.5274   10.7769 C.ar    1  UNL1        0.0535
      5 C          63.0253   88.1490   11.8630 C.ar    1  UNL1        0.1349
      6 N          63.1631   86.7137   12.2767 N.ar    1  UNL1       -0.2119
      7 C          62.3760   82.0298   15.3248 C.3     1  UNL1        0.0521
      8 C          62.4948   82.4081   13.8782 C.ar    1  UNL1        0.0591
      9 C          62.3570   83.8433   13.4645 C.ar    1  UNL1        0.0178
     10 C          62.4758   84.2216   12.0179 C.ar    1  UNL1        0.0382
     11 C          62.7324   83.1647   10.9849 C.ar    1  UNL1        0.0178
     12 C          62.8701   81.7295   11.3986 C.ar    1  UNL1        0.0591
     13 C          63.1267   80.6725   10.3656 C.3     1  UNL1        0.0521
     14 N          62.7513   81.3512   12.8452 N.ar    1  UNL1       -0.2540
     15 C          60.2743   87.8488    9.0184 C.ar    1  UNL1        0.0370
     16 C          60.2742   89.2445    8.4688 C.ar    1  UNL1        0.0046
     17 C          59.3113   89.6228    7.3827 C.ar    1  UNL1        0.0207
     18 C          58.3485   88.6055    6.8462 C.ar    1  UNL1        0.0989
     19 N          58.3486   87.2097    7.3957 N.ar    1  UNL1       -0.2423
     20 C          59.3115   86.8314    8.4818 C.ar    1  UNL1        0.1003
     21 N          63.8504   89.2059   12.5355 N.pl3   1  UNL1       -0.2931
     22 C          64.1321   90.4992   11.8300 C.3     1  UNL1        0.0935
     23 C          64.9573   91.5562   12.5024 C.3     1  UNL1        0.0375
     24 C          65.5007   91.3196   13.8804 C.3     1  UNL1        0.0611
     25 C          65.2189   90.0262   14.5859 C.3     1  UNL1        0.0375
     26 C          64.3938   88.9693   13.9134 C.3     1  UNL1        0.0935
     27 N          66.3258   92.3765   14.5528 N.3     1  UNL1       -0.2696
     28 C          67.0359   92.0689   15.8378 C.3     1  UNL1        0.1046
     29 C          67.8610   93.1258   16.5103 C.3     1  UNL1        0.1595
     30 O          67.9760   94.4902   15.8978 O.3     1  UNL1       -0.3508
     31 C          67.2659   94.7977   14.6128 C.3     1  UNL1        0.1595
     32 C          66.4408   93.7409   13.9404 C.3     1  UNL1        0.1046
@<TRIPOS>BOND
     1     7     8    1
     2     8     9   ar
     3     9    10   ar
     4    10     1    1
     5     1     2   ar
     6     2     3   ar
     7     3    15    1
     8    15    16   ar
     9    16    17   ar
    10    17    18   ar
    11    18    19   ar
    12    19    20   ar
    13     3     4   ar
    14     4     5   ar
    15     5    21    1
    16    21    22    1
    17    22    23    1
    18    23    24    1
    19    24    27    1
    20    27    28    1
    21    28    29    1
    22    29    30    1
    23    30    31    1
    24    31    32    1
    25    24    25    1
    26    25    26    1
    27     5     6   ar
    28    10    11   ar
    29    11    12   ar
    30    12    13    1
    31    12    14   ar
    32    14     8   ar
    33     6     1   ar
    34    20    15   ar
    35    26    21    1
    36    32    27    1
@<TRIPOS>MOLECULE
*****
 32 36 0 0 0
SMALL
GASTEIGER

@<TRIPOS>ATOM
      1 C          62.3429   85.6717   11.6085 C.ar    1  UNL1        0.1636
      2 N          61.3763   86.0506   10.5259 N.ar    1  UNL1       -0.2264
      3 C          61.2357   87.4862   10.1148 C.ar    1  UNL1        0.0872
      4 C          62.0617   88.5431   10.7863 C.ar    1  UNL1        0.0535
      5 C          63.0282   88.1642   11.8690 C.ar    1  UNL1        0.1349
      6 N          63.1688   86.7284   12.2801 N.ar    1  UNL1       -0.2119
      7 C          63.1330   80.6900   10.3599 C.3     1  UNL1        0.0521
      8 C          62.8786   81.7451   11.3953 C.ar    1  UNL1        0.0591
      9 C          62.7380   83.1808   10.9843 C.ar    1  UNL1        0.0178
     10 C          62.4835   84.2359   12.0196 C.ar    1  UNL1        0.0382
     11 C          62.3696   83.8553   13.4661 C.ar    1  UNL1        0.0178
     12 C          62.5102   82.4196   13.8771 C.ar    1  UNL1        0.0591
     13 C          62.3963   82.0390   15.3236 C.3     1  UNL1        0.0521
     14 N          62.7647   81.3645   12.8417 N.ar    1  UNL1       -0.2540
     15 C          60.2692   87.8651    9.0321 C.ar    1  UNL1        0.0370
     16 C          60.2743   89.2582    8.4759 C.ar    1  UNL1        0.0046
     17 C          59.3077   89.6371    7.3932 C.ar    1  UNL1        0.0207
     18 C          58.3361   88.6230    6.8667 C.ar    1  UNL1        0.0989
     19 N          58.3309   87.2298    7.4228 N.ar    1  UNL1       -0.2423
     20 C          59.2974   86.8509    8.5055 C.ar    1  UNL1        0.1003
     21 N          63.8541   89.2209   12.5406 N.pl3   1  UNL1       -0.2931
     22 C          64.1336   90.5151   11.8356 C.3     1  UNL1        0.0935
     23 C          64.9596   91.5719   12.5072 C.3     1  UNL1        0.0375
     24 C          65.5060   91.3345   13.8838 C.3     1  UNL1        0.0611
     25 C          65.2266   90.0403   14.5888 C.3     1  UNL1        0.0375
     26 C          64.4006   88.9835   13.9172 C.3     1  UNL1        0.0935
     27 N          66.3320   92.3913   14.5553 N.3     1  UNL1       -0.2696
     28 C          67.0501   92.0811   15.8352 C.3     1  UNL1        0.1046
     29 C          67.8760   93.1379   16.5069 C.3     1  UNL1        0.1595
     30 O          67.9839   94.5048   15.8986 O.3     1  UNL1       -0.3508
     31 C          67.2657   94.8149   14.6186 C.3     1  UNL1        0.1595
     32 C          66.4398   93.7581   13.9470 C.3     1  UNL1        0.1046
@<TRIPOS>BOND
     1     7     8    1
     2     8     9   ar
     3     9    10   ar
     4    10     1    1
     5     1     2   ar
     6     2     3   ar
     7     3    15    1
     8    15    16   ar
     9    16    17   ar
    10    17    18   ar
    11    18    19   ar
    12    19    20   ar
    13     3     4   ar
    14     4     5   ar
    15     5    21    1
    16    21    22    1
    17    22    23    1
    18    23    24    1
    19    24    27    1
    20    27    28    1
    21    28    29    1
    22    29    30    1
    23    30    31    1
    24    31    32    1
    25    24    25    1
    26    25    26    1
    27     5     6   ar
    28    10    11   ar
    29    11    12   ar
    30    12    13    1
    31    12    14   ar
    32    14     8   ar
    33     6     1   ar
    34    20    15   ar
    35    26    21    1
    36    32    27    1
