@<TRIPOS>MOLECULE
*****
 40 43 0 0 0
SMALL
GASTEIGER

@<TRIPOS>ATOM
      1 C          61.9487   88.4801   11.0591 C.3     1  UNL1        0.0808
      2 C          63.6792   89.2873   12.8209 C.ar    1  UNL1        0.2211
      3 N          64.6993   90.2886   13.2759 N.ar    1  UNL1       -0.2119
      4 C          65.0089   91.4838   12.4242 C.ar    1  UNL1        0.0844
      5 C          66.0290   92.4850   12.8791 C.ar    1  UNL1        0.0197
      6 C          66.3386   93.6802   12.0274 C.ar    1  UNL1        0.0082
      7 C          65.6282   93.8743   10.7206 C.ar    1  UNL1        0.0347
      8 BR         65.9379   95.0695    9.8689 Br      1  UNL1       -0.0490
      9 C          64.6081   92.8730   10.2656 C.ar    1  UNL1        0.0082
     10 C          64.2985   91.6778   11.1174 C.ar    1  UNL1        0.0181
     11 C          63.2784   90.6766   10.6624 C.ar    1  UNL1        0.0023
     12 C          62.9688   89.4814   11.5141 C.ar    1  UNL1        0.0375
     13 C          64.3302   87.6642   14.7423 C.3     1  UNL1        0.2542
     14 O          63.3695   88.0921   13.6727 O.3     1  UNL1       -0.4563
     15 C          62.3888   87.2143   10.3854 C.ar    1  UNL1        0.0245
     16 C          62.8544   87.2462    8.9598 C.ar    1  UNL1        0.0200
     17 C          63.2945   85.9803    8.2861 C.ar    1  UNL1        0.1019
     18 N          63.2691   84.6826    9.0380 N.ar    1  UNL1       -0.2076
     19 C          62.8035   84.6507   10.4635 C.ar    1  UNL1        0.2598
     20 C          62.3634   85.9166   11.1372 C.ar    1  UNL1        0.1879
     21 O          62.7781   83.3530   11.2153 O.3     1  UNL1       -0.4541
     22 C          63.8829   82.3559   11.0279 C.3     1  UNL1        0.2543
     23 O          61.8979   85.8847   12.5628 O.3     1  UNL1       -0.4670
     24 C          62.4588   84.8681   13.5124 C.3     1  UNL1        0.2527
     25 C          60.4885   88.7448   11.2778 C.3     1  UNL1        0.1159
     26 O          60.7782   89.1817   12.6831 O.3     1  UNL1       -0.3820
     27 H          59.9467   89.2527   13.1776 H       1  UNL1        0.2107
     28 C          60.1988   88.3078    9.8724 C.ar    1  UNL1        0.0030
     29 C          59.9894   86.8542    9.5670 C.ar    1  UNL1       -0.0020
     30 C          59.6998   86.4173    8.1616 C.ar    1  UNL1        0.0004
     31 C          59.6195   87.4339    7.0616 C.ar    1  UNL1        0.0103
     32 C          59.8289   88.8875    7.3670 C.ar    1  UNL1        0.0682
     33 C          60.1186   89.3244    8.7723 C.ar    1  UNL1        0.0083
     34 C          59.7486   89.9041    6.2669 C.1     1  UNL1        0.1004
     35 N          59.6683   90.9207    5.1669 N.1     1  UNL1       -0.1908
     36 C          59.0284   89.0094   11.4965 C.3     1  UNL1        0.0491
     37 C          58.5529   89.5497   12.8125 C.3     1  UNL1        0.0750
     38 N          58.0122   88.6165   13.8551 N.3     1  UNL1       -0.2702
     39 C          58.7825   88.3776   15.1198 C.3     1  UNL1        0.0897
     40 C          56.7012   87.9223   13.6329 C.3     1  UNL1        0.0897
@<TRIPOS>BOND
     1    13    14    1
     2    14     2    1
     3     2     3   ar
     4     3     4   ar
     5     4     5   ar
     6     5     6   ar
     7     6     7   ar
     8     7     8    1
     9     7     9   ar
    10     9    10   ar
    11    10    11   ar
    12    11    12   ar
    13     1    12    1
    14     1    15    1
    15    15    16   ar
    16    16    17   ar
    17    17    18   ar
    18    18    19   ar
    19    19    21    1
    20    21    22    1
    21    19    20   ar
    22    20    23    1
    23    23    24    1
    24     1    25    1
    25    25    26    1
    26    25    36    1
    27    36    37    1
    28    37    38    1
    29    38    39    1
    30    38    40    1
    31    25    28    1
    32    28    29   ar
    33    29    30   ar
    34    30    31   ar
    35    31    32   ar
    36    32    34    1
    37    34    35    3
    38    32    33   ar
    39    12     2   ar
    40    20    15   ar
    41    33    28   ar
    42    10     4   ar
    43    26    27    1
@<TRIPOS>MOLECULE
*****
 40 43 0 0 0
SMALL
GASTEIGER

@<TRIPOS>ATOM
      1 C          62.0155   87.7950   10.4900 C.3     1  UNL1        0.0808
      2 C          63.2916   87.5413   12.7388 C.ar    1  UNL1        0.2211
      3 N          63.8018   86.6755   13.8525 N.ar    1  UNL1       -0.2119
      4 C          63.5458   85.1977   13.8311 C.ar    1  UNL1        0.0844
      5 C          64.0558   84.3319   14.9447 C.ar    1  UNL1        0.0197
      6 C          63.7998   82.8540   14.9232 C.ar    1  UNL1        0.0082
      7 C          63.0338   82.2420   13.7881 C.ar    1  UNL1        0.0347
      8 BR         62.7778   80.7641   13.7666 Br      1  UNL1       -0.0490
      9 C          62.5237   83.1078   12.6744 C.ar    1  UNL1        0.0082
     10 C          62.7797   84.5856   12.6959 C.ar    1  UNL1        0.0181
     11 C          62.2696   85.4514   11.5822 C.ar    1  UNL1        0.0023
     12 C          62.5256   86.9292   11.6037 C.ar    1  UNL1        0.0375
     13 C          63.3858   89.7898   14.0370 C.3     1  UNL1        0.2542
     14 O          63.5476   89.0191   12.7603 O.3     1  UNL1       -0.4563
     15 C          61.2806   87.1782    9.3370 C.ar    1  UNL1        0.0245
     16 C          59.8854   87.6236    9.0123 C.ar    1  UNL1        0.0200
     17 C          59.1505   87.0068    7.8592 C.ar    1  UNL1        0.1019
     18 N          59.8107   85.9447    7.0310 N.ar    1  UNL1       -0.2076
     19 C          61.2058   85.4993    7.3557 C.ar    1  UNL1        0.2598
     20 C          61.9407   86.1161    8.5087 C.ar    1  UNL1        0.1879
     21 O          61.8659   84.4372    6.5274 O.3     1  UNL1       -0.4541
     22 C          61.7296   84.4581    5.0338 C.3     1  UNL1        0.2543
     23 O          63.3357   85.6708    8.8335 O.3     1  UNL1       -0.4670
     24 C          63.6257   84.2162    9.0576 C.3     1  UNL1        0.2527
     25 C          62.2403   89.2775   10.5294 C.3     1  UNL1        0.1159
     26 O          63.5893   89.0897    9.9010 O.3     1  UNL1       -0.3820
     27 H          64.0931   89.9161    9.9638 H       1  UNL1        0.2107
     28 C          60.8913   89.4654   11.1578 C.ar    1  UNL1        0.0030
     29 C          60.1847   88.2979   11.7802 C.ar    1  UNL1       -0.0020
     30 C          58.8356   88.4858   12.4086 C.ar    1  UNL1        0.0004
     31 C          58.1933   89.8412   12.4145 C.ar    1  UNL1        0.0103
     32 C          58.8999   91.0088   11.7920 C.ar    1  UNL1        0.0682
     33 C          60.2489   90.8209   11.1637 C.ar    1  UNL1        0.0083
     34 C          58.2574   92.3643   11.7980 C.1     1  UNL1        0.1004
     35 N          57.6151   93.7198   11.8038 N.1     1  UNL1       -0.1908
     36 C          62.4651   90.7600   10.5687 C.3     1  UNL1        0.0491
     37 C          63.7109   91.3458    9.9731 C.3     1  UNL1        0.0750
     38 N          64.7074   92.0413   10.8525 N.3     1  UNL1       -0.2702
     39 C          64.5200   92.0455   12.3408 C.3     1  UNL1        0.0897
     40 C          65.8912   92.7326   10.2437 C.3     1  UNL1        0.0897
@<TRIPOS>BOND
     1    13    14    1
     2    14     2    1
     3     2     3   ar
     4     3     4   ar
     5     4     5   ar
     6     5     6   ar
     7     6     7   ar
     8     7     8    1
     9     7     9   ar
    10     9    10   ar
    11    10    11   ar
    12    11    12   ar
    13     1    12    1
    14     1    15    1
    15    15    16   ar
    16    16    17   ar
    17    17    18   ar
    18    18    19   ar
    19    19    21    1
    20    21    22    1
    21    19    20   ar
    22    20    23    1
    23    23    24    1
    24     1    25    1
    25    25    26    1
    26    25    36    1
    27    36    37    1
    28    37    38    1
    29    38    39    1
    30    38    40    1
    31    25    28    1
    32    28    29   ar
    33    29    30   ar
    34    30    31   ar
    35    31    32   ar
    36    32    34    1
    37    34    35    3
    38    32    33   ar
    39    12     2   ar
    40    20    15   ar
    41    33    28   ar
    42    10     4   ar
    43    26    27    1
@<TRIPOS>MOLECULE
*****
 40 43 0 0 0
SMALL
GASTEIGER

@<TRIPOS>ATOM
      1 C          62.3636   89.3227   12.3065 C.3     1  UNL1        0.0808
      2 C          63.4352   87.7345   14.0613 C.ar    1  UNL1        0.2211
      3 N          63.9319   86.3733   14.4494 N.ar    1  UNL1       -0.2119
      4 C          63.8537   85.2392   13.4708 C.ar    1  UNL1        0.0844
      5 C          64.3503   83.8781   13.8588 C.ar    1  UNL1        0.0197
      6 C          64.2721   82.7440   12.8801 C.ar    1  UNL1        0.0082
      7 C          63.6973   82.9711   11.5134 C.ar    1  UNL1        0.0347
      8 BR         63.6191   81.8370   10.5348 Br      1  UNL1       -0.0490
      9 C          63.2006   84.3323   11.1253 C.ar    1  UNL1        0.0082
     10 C          63.2788   85.4663   12.1040 C.ar    1  UNL1        0.0181
     11 C          62.7821   86.8275   11.7159 C.ar    1  UNL1        0.0023
     12 C          62.8603   87.9615   12.6946 C.ar    1  UNL1        0.0375
     13 C          63.1815   88.6369   16.4844 C.3     1  UNL1        0.2542
     14 O          63.5134   88.8685   15.0400 O.3     1  UNL1       -0.4563
     15 C          63.3259   90.3558   11.7997 C.ar    1  UNL1        0.0245
     16 C          63.5912   90.4758   10.3282 C.ar    1  UNL1        0.0200
     17 C          64.5534   91.5089    9.8214 C.ar    1  UNL1        0.1019
     18 N          65.2503   92.4220   10.7861 N.ar    1  UNL1       -0.2076
     19 C          64.9850   92.3020   12.2575 C.ar    1  UNL1        0.2598
     20 C          64.0228   91.2689   12.7643 C.ar    1  UNL1        0.1879
     21 O          65.6819   93.2151   13.2222 O.3     1  UNL1       -0.4541
     22 C          66.4118   94.4241   12.7167 C.3     1  UNL1        0.2543
     23 O          63.7574   91.1489   14.2357 O.3     1  UNL1       -0.4670
     24 C          64.8297   91.5044   15.2227 C.3     1  UNL1        0.2527
     25 C          60.9048   89.6507   12.4251 C.3     1  UNL1        0.1159
     26 O          61.0921   89.9568   13.8816 O.3     1  UNL1       -0.3820
     27 H          60.2252   90.0346   14.3097 H       1  UNL1        0.2107
     28 C          60.7175   89.3447   10.9687 C.ar    1  UNL1        0.0030
     29 C          60.1199   90.3748   10.0567 C.ar    1  UNL1       -0.0020
     30 C          59.9327   90.0686    8.6002 C.ar    1  UNL1        0.0004
     31 C          60.3429   88.7325    8.0558 C.ar    1  UNL1        0.0103
     32 C          60.9405   87.7024    8.9679 C.ar    1  UNL1        0.0682
     33 C          61.1278   88.0085   10.4243 C.ar    1  UNL1        0.0083
     34 C          61.3508   86.3662    8.4234 C.1     1  UNL1        0.1004
     35 N          61.7610   85.0301    7.8791 N.1     1  UNL1       -0.1908
     36 C          59.4460   89.9788   12.5438 C.3     1  UNL1        0.0491
     37 C          58.4172   88.9058   12.3429 C.3     1  UNL1        0.0750
     38 N          57.6819   88.3415   13.5224 N.3     1  UNL1       -0.2702
     39 C          56.2406   87.9479   13.3893 C.3     1  UNL1        0.0897
     40 C          58.3879   88.1710   14.8348 C.3     1  UNL1        0.0897
@<TRIPOS>BOND
     1    13    14    1
     2    14     2    1
     3     2     3   ar
     4     3     4   ar
     5     4     5   ar
     6     5     6   ar
     7     6     7   ar
     8     7     8    1
     9     7     9   ar
    10     9    10   ar
    11    10    11   ar
    12    11    12   ar
    13     1    12    1
    14     1    15    1
    15    15    16   ar
    16    16    17   ar
    17    17    18   ar
    18    18    19   ar
    19    19    21    1
    20    21    22    1
    21    19    20   ar
    22    20    23    1
    23    23    24    1
    24     1    25    1
    25    25    26    1
    26    25    36    1
    27    36    37    1
    28    37    38    1
    29    38    39    1
    30    38    40    1
    31    25    28    1
    32    28    29   ar
    33    29    30   ar
    34    30    31   ar
    35    31    32   ar
    36    32    34    1
    37    34    35    3
    38    32    33   ar
    39    12     2   ar
    40    20    15   ar
    41    33    28   ar
    42    10     4   ar
    43    26    27    1
@<TRIPOS>MOLECULE
*****
 40 43 0 0 0
SMALL
GASTEIGER

@<TRIPOS>ATOM
      1 C          63.0398   89.4808   12.9846 C.3     1  UNL1        0.0808
      2 C          60.7269   88.8314   11.9953 C.ar    1  UNL1        0.2211
      3 N          59.9110   88.0942   10.9750 N.ar    1  UNL1       -0.2119
      4 C          60.5923   87.2692    9.9237 C.ar    1  UNL1        0.0844
      5 C          59.7766   86.5320    8.9034 C.ar    1  UNL1        0.0197
      6 C          60.4579   85.7071    7.8521 C.ar    1  UNL1        0.0082
      7 C          61.9549   85.6193    7.8211 C.ar    1  UNL1        0.0347
      8 BR         62.6363   84.7943    6.7697 Br      1  UNL1       -0.0490
      9 C          62.7708   86.3565    8.8414 C.ar    1  UNL1        0.0082
     10 C          62.0895   87.1814    9.8927 C.ar    1  UNL1        0.0181
     11 C          62.9053   87.9186   10.9130 C.ar    1  UNL1        0.0023
     12 C          62.2240   88.7436   11.9643 C.ar    1  UNL1        0.0375
     13 C          58.6893   89.2591   13.5495 C.3     1  UNL1        0.2542
     14 O          60.0456   89.6564   13.0466 O.3     1  UNL1       -0.4563
     15 C          64.0068   90.5411   12.5479 C.ar    1  UNL1        0.0245
     16 C          64.0349   90.9867   11.1158 C.ar    1  UNL1        0.0200
     17 C          65.0018   92.0470   10.6791 C.ar    1  UNL1        0.1019
     18 N          65.9406   92.6618   11.6745 N.ar    1  UNL1       -0.2076
     19 C          65.9125   92.2163   13.1065 C.ar    1  UNL1        0.2598
     20 C          64.9455   91.1559   13.5432 C.ar    1  UNL1        0.1879
     21 O          66.8513   92.8311   14.1018 O.3     1  UNL1       -0.4541
     22 C          68.1661   92.1729   14.3984 C.3     1  UNL1        0.2543
     23 O          64.9174   90.7104   14.9752 O.3     1  UNL1       -0.4670
     24 C          64.8101   91.7254   16.0745 C.3     1  UNL1        0.2527
     25 C          62.8887   89.1577   14.4415 C.3     1  UNL1        0.1159
     26 O          62.1935   90.4687   14.6602 O.3     1  UNL1       -0.3820
     27 H          62.1231   90.6425   15.6119 H       1  UNL1        0.2107
     28 C          63.5839   87.8466   14.2228 C.ar    1  UNL1        0.0030
     29 C          64.8777   87.5576   14.9245 C.ar    1  UNL1       -0.0020
     30 C          65.5729   86.2464   14.7058 C.ar    1  UNL1        0.0004
     31 C          64.9742   85.2245   13.7854 C.ar    1  UNL1        0.0103
     32 C          63.6804   85.5135   13.0838 C.ar    1  UNL1        0.0682
     33 C          62.9852   86.8246   13.3024 C.ar    1  UNL1        0.0083
     34 C          63.0817   84.4915   12.1633 C.1     1  UNL1        0.1004
     35 N          62.4831   83.4695   11.2430 N.1     1  UNL1       -0.1908
     36 C          62.7376   88.8345   15.8985 C.3     1  UNL1        0.0491
     37 C          61.7623   87.7822   16.3361 C.3     1  UNL1        0.0750
     38 N          62.2390   86.6006   17.1277 N.3     1  UNL1       -0.2702
     39 C          62.7106   86.7847   18.5397 C.3     1  UNL1        0.0897
     40 C          62.2441   85.2349   16.5074 C.3     1  UNL1        0.0897
@<TRIPOS>BOND
     1    13    14    1
     2    14     2    1
     3     2     3   ar
     4     3     4   ar
     5     4     5   ar
     6     5     6   ar
     7     6     7   ar
     8     7     8    1
     9     7     9   ar
    10     9    10   ar
    11    10    11   ar
    12    11    12   ar
    13     1    12    1
    14     1    15    1
    15    15    16   ar
    16    16    17   ar
    17    17    18   ar
    18    18    19   ar
    19    19    21    1
    20    21    22    1
    21    19    20   ar
    22    20    23    1
    23    23    24    1
    24     1    25    1
    25    25    26    1
    26    25    36    1
    27    36    37    1
    28    37    38    1
    29    38    39    1
    30    38    40    1
    31    25    28    1
    32    28    29   ar
    33    29    30   ar
    34    30    31   ar
    35    31    32   ar
    36    32    34    1
    37    34    35    3
    38    32    33   ar
    39    12     2   ar
    40    20    15   ar
    41    33    28   ar
    42    10     4   ar
    43    26    27    1
@<TRIPOS>MOLECULE
*****
 40 43 0 0 0
SMALL
GASTEIGER

@<TRIPOS>ATOM
      1 C          63.3191   89.4062   13.4669 C.3     1  UNL1        0.0808
      2 C          60.9794   88.9880   12.4177 C.ar    1  UNL1        0.2211
      3 N          60.1247   88.3587   11.3577 N.ar    1  UNL1       -0.2119
      4 C          60.7550   87.5184   10.2870 C.ar    1  UNL1        0.0844
      5 C          59.9004   86.8891    9.2270 C.ar    1  UNL1        0.0197
      6 C          60.5308   86.0487    8.1563 C.ar    1  UNL1        0.0082
      7 C          62.0158   85.8376    8.1456 C.ar    1  UNL1        0.0347
      8 BR         62.6461   84.9973    7.0748 Br      1  UNL1       -0.0490
      9 C          62.8705   86.4669    9.2056 C.ar    1  UNL1        0.0082
     10 C          62.2401   87.3073   10.2763 C.ar    1  UNL1        0.0181
     11 C          63.0948   87.9365   11.3362 C.ar    1  UNL1        0.0023
     12 C          62.4644   88.7769   12.4069 C.ar    1  UNL1        0.0375
     13 C          59.1662   89.3087   14.2506 C.3     1  UNL1        0.2542
     14 O          60.3490   89.8284   13.4884 O.3     1  UNL1       -0.4563
     15 C          64.3532   90.4252   13.0895 C.ar    1  UNL1        0.0245
     16 C          65.6416   90.5047   13.8536 C.ar    1  UNL1        0.0200
     17 C          66.6757   91.5237   13.4762 C.ar    1  UNL1        0.1019
     18 N          66.4213   92.4631   12.3347 N.ar    1  UNL1       -0.2076
     19 C          65.1330   92.3835   11.5707 C.ar    1  UNL1        0.2598
     20 C          64.0989   91.3645   11.9481 C.ar    1  UNL1        0.1879
     21 O          64.8787   93.3228   10.4293 O.3     1  UNL1       -0.4541
     22 C          65.8106   94.4718   10.1817 C.3     1  UNL1        0.2543
     23 O          62.8105   91.2849   11.1841 O.3     1  UNL1       -0.4670
     24 C          62.8301   91.0424    9.7039 C.3     1  UNL1        0.2527
     25 C          63.1398   89.0165   14.9043 C.3     1  UNL1        0.1159
     26 O          62.4868   90.3382   15.1811 O.3     1  UNL1       -0.3820
     27 H          62.4109   90.4669   16.1395 H       1  UNL1        0.2107
     28 C          63.7928   87.6948   14.6274 C.ar    1  UNL1        0.0030
     29 C          65.1051   87.3573   15.2708 C.ar    1  UNL1       -0.0020
     30 C          65.7581   86.0355   14.9939 C.ar    1  UNL1        0.0004
     31 C          65.0988   85.0514   14.0737 C.ar    1  UNL1        0.0103
     32 C          63.7865   85.3889   13.4304 C.ar    1  UNL1        0.0682
     33 C          63.1335   86.7106   13.7072 C.ar    1  UNL1        0.0083
     34 C          63.1271   84.4047   12.5101 C.1     1  UNL1        0.1004
     35 N          62.4678   83.4206   11.5900 N.1     1  UNL1       -0.1908
     36 C          62.9604   88.6269   16.3416 C.3     1  UNL1        0.0491
     37 C          61.8987   87.6387   16.7239 C.3     1  UNL1        0.0750
     38 N          62.2744   86.3700   17.4306 N.3     1  UNL1       -0.2702
     39 C          62.1756   85.0554   16.7151 C.3     1  UNL1        0.0897
     40 C          62.7488   86.4160   18.8528 C.3     1  UNL1        0.0897
@<TRIPOS>BOND
     1    13    14    1
     2    14     2    1
     3     2     3   ar
     4     3     4   ar
     5     4     5   ar
     6     5     6   ar
     7     6     7   ar
     8     7     8    1
     9     7     9   ar
    10     9    10   ar
    11    10    11   ar
    12    11    12   ar
    13     1    12    1
    14     1    15    1
    15    15    16   ar
    16    16    17   ar
    17    17    18   ar
    18    18    19   ar
    19    19    21    1
    20    21    22    1
    21    19    20   ar
    22    20    23    1
    23    23    24    1
    24     1    25    1
    25    25    26    1
    26    25    36    1
    27    36    37    1
    28    37    38    1
    29    38    39    1
    30    38    40    1
    31    25    28    1
    32    28    29   ar
    33    29    30   ar
    34    30    31   ar
    35    31    32   ar
    36    32    34    1
    37    34    35    3
    38    32    33   ar
    39    12     2   ar
    40    20    15   ar
    41    33    28   ar
    42    10     4   ar
    43    26    27    1
@<TRIPOS>MOLECULE
*****
 40 43 0 0 0
SMALL
GASTEIGER

@<TRIPOS>ATOM
      1 C          62.8879   88.4612   12.7563 C.3     1  UNL1        0.0808
      2 C          63.5541   90.5818   11.4112 C.ar    1  UNL1        0.2211
      3 N          64.3501   91.8476   11.2918 N.ar    1  UNL1       -0.2119
      4 C          65.2759   92.2585   12.3982 C.ar    1  UNL1        0.0844
      5 C          66.0719   93.5243   12.2788 C.ar    1  UNL1        0.0197
      6 C          66.9976   93.9352   13.3852 C.ar    1  UNL1        0.0082
      7 C          67.1274   93.0804   14.6109 C.ar    1  UNL1        0.0347
      8 BR         68.0532   93.4914   15.7173 Br      1  UNL1       -0.0490
      9 C          66.3314   91.8146   14.7303 C.ar    1  UNL1        0.0082
     10 C          65.4057   91.4037   13.6239 C.ar    1  UNL1        0.0181
     11 C          64.6097   90.1379   13.7433 C.ar    1  UNL1        0.0023
     12 C          63.6839   89.7270   12.6369 C.ar    1  UNL1        0.0375
     13 C          62.3763   91.0994    9.1540 C.3     1  UNL1        0.2542
     14 O          62.6284   90.1708   10.3048 O.3     1  UNL1       -0.4563
     15 C          63.4198   87.3140   13.5632 C.ar    1  UNL1        0.0245
     16 C          64.1433   86.1900   12.8825 C.ar    1  UNL1        0.0200
     17 C          64.6752   85.0428   13.6894 C.ar    1  UNL1        0.1019
     18 N          64.4837   85.0197   15.1770 N.ar    1  UNL1       -0.2076
     19 C          63.7603   86.1437   15.8576 C.ar    1  UNL1        0.2598
     20 C          63.2284   87.2909   15.0507 C.ar    1  UNL1        0.1879
     21 O          63.5689   86.1206   17.3452 O.3     1  UNL1       -0.4541
     22 C          62.2051   86.3418   17.9294 C.3     1  UNL1        0.2543
     23 O          62.5050   88.4149   15.7313 O.3     1  UNL1       -0.4670
     24 C          63.2734   89.4300   16.5246 C.3     1  UNL1        0.2527
     25 C          61.5601   88.3426   12.0688 C.3     1  UNL1        0.1159
     26 O          61.0422   89.5006   12.8692 O.3     1  UNL1       -0.3820
     27 H          60.0791   89.5581   12.7688 H       1  UNL1        0.2107
     28 C          62.0779   87.1845   11.2684 C.ar    1  UNL1        0.0030
     29 C          62.6842   87.4186    9.9164 C.ar    1  UNL1       -0.0020
     30 C          63.2021   86.2605    9.1160 C.ar    1  UNL1        0.0004
     31 C          63.1137   84.8684    9.6675 C.ar    1  UNL1        0.0103
     32 C          62.5075   84.6343   11.0194 C.ar    1  UNL1        0.0682
     33 C          61.9896   85.7923   11.8198 C.ar    1  UNL1        0.0083
     34 C          62.4191   83.2421   11.5708 C.1     1  UNL1        0.1004
     35 N          62.3307   81.8500   12.1222 N.1     1  UNL1       -0.1908
     36 C          60.2322   88.2239   11.3813 C.3     1  UNL1        0.0491
     37 C          59.9417   89.0501   10.1635 C.3     1  UNL1        0.0750
     38 N          59.6639   88.3793    8.8509 N.3     1  UNL1       -0.2702
     39 C          59.4049   86.9026    8.8033 C.3     1  UNL1        0.0897
     40 C          59.6450   89.1853    7.5860 C.3     1  UNL1        0.0897
@<TRIPOS>BOND
     1    13    14    1
     2    14     2    1
     3     2     3   ar
     4     3     4   ar
     5     4     5   ar
     6     5     6   ar
     7     6     7   ar
     8     7     8    1
     9     7     9   ar
    10     9    10   ar
    11    10    11   ar
    12    11    12   ar
    13     1    12    1
    14     1    15    1
    15    15    16   ar
    16    16    17   ar
    17    17    18   ar
    18    18    19   ar
    19    19    21    1
    20    21    22    1
    21    19    20   ar
    22    20    23    1
    23    23    24    1
    24     1    25    1
    25    25    26    1
    26    25    36    1
    27    36    37    1
    28    37    38    1
    29    38    39    1
    30    38    40    1
    31    25    28    1
    32    28    29   ar
    33    29    30   ar
    34    30    31   ar
    35    31    32   ar
    36    32    34    1
    37    34    35    3
    38    32    33   ar
    39    12     2   ar
    40    20    15   ar
    41    33    28   ar
    42    10     4   ar
    43    26    27    1
@<TRIPOS>MOLECULE
*****
 40 43 0 0 0
SMALL
GASTEIGER

@<TRIPOS>ATOM
      1 C          63.0660   88.7768   11.9161 C.3     1  UNL1        0.0808
      2 C          60.6549   88.4741   10.9968 C.ar    1  UNL1        0.2211
      3 N          59.7099   87.8624   10.0054 N.ar    1  UNL1       -0.2119
      4 C          60.2310   86.9418    8.9419 C.ar    1  UNL1        0.0844
      5 C          59.2860   86.3302    7.9505 C.ar    1  UNL1        0.0197
      6 C          59.8071   85.4096    6.8870 C.ar    1  UNL1        0.0082
      7 C          61.2732   85.1007    6.8149 C.ar    1  UNL1        0.0347
      8 BR         61.7942   84.1801    5.7514 Br      1  UNL1       -0.0490
      9 C          62.2182   85.7124    7.8063 C.ar    1  UNL1        0.0082
     10 C          61.6971   86.6329    8.8698 C.ar    1  UNL1        0.0181
     11 C          62.6421   87.2446    9.8612 C.ar    1  UNL1        0.0023
     12 C          62.1210   88.1652   10.9247 C.ar    1  UNL1        0.0375
     13 C          59.2961   90.5799   11.6816 C.3     1  UNL1        0.2542
     14 O          60.1339   89.3946   12.0603 O.3     1  UNL1       -0.4563
     15 C          63.6570   87.9343   13.0073 C.ar    1  UNL1        0.0245
     16 C          64.6902   88.5148   13.9269 C.ar    1  UNL1        0.0200
     17 C          65.2812   87.6722   15.0181 C.ar    1  UNL1        0.1019
     18 N          64.8390   86.2491   15.1898 N.ar    1  UNL1       -0.2076
     19 C          63.8058   85.6687   14.2702 C.ar    1  UNL1        0.2598
     20 C          63.2148   86.5113   13.1790 C.ar    1  UNL1        0.1879
     21 O          63.3636   84.2457   14.4419 O.3     1  UNL1       -0.4541
     22 C          62.2687   83.9123   15.4114 C.3     1  UNL1        0.2543
     23 O          62.1817   85.9309   12.2594 O.3     1  UNL1       -0.4670
     24 C          62.3794   84.5624   11.6776 C.3     1  UNL1        0.2527
     25 C          63.4201   90.2310   11.8162 C.3     1  UNL1        0.1159
     26 O          63.4441   90.1224   10.3204 O.3     1  UNL1       -0.3820
     27 H          63.8473   90.9207    9.9447 H       1  UNL1        0.2107
     28 C          63.3960   90.3396   13.3120 C.ar    1  UNL1        0.0030
     29 C          62.3266   89.6402   14.0977 C.ar    1  UNL1       -0.0020
     30 C          62.3027   89.7488   15.5937 C.ar    1  UNL1        0.0004
     31 C          63.3481   90.5567   16.3038 C.ar    1  UNL1        0.0103
     32 C          64.4175   91.2561   15.5181 C.ar    1  UNL1        0.0682
     33 C          64.4415   91.1475   14.0223 C.ar    1  UNL1        0.0083
     34 C          65.4629   92.0640   16.2284 C.1     1  UNL1        0.1004
     35 N          66.5083   92.8719   16.9386 N.1     1  UNL1       -0.1908
     36 C          63.7741   91.6852   11.7163 C.3     1  UNL1        0.0491
     37 C          64.7021   92.1588   10.6372 C.3     1  UNL1        0.0750
     38 N          66.0014   92.8147   11.0000 N.3     1  UNL1       -0.2702
     39 C          66.0508   93.8141   12.1175 C.3     1  UNL1        0.0897
     40 C          67.2513   92.4712   10.2452 C.3     1  UNL1        0.0897
@<TRIPOS>BOND
     1    13    14    1
     2    14     2    1
     3     2     3   ar
     4     3     4   ar
     5     4     5   ar
     6     5     6   ar
     7     6     7   ar
     8     7     8    1
     9     7     9   ar
    10     9    10   ar
    11    10    11   ar
    12    11    12   ar
    13     1    12    1
    14     1    15    1
    15    15    16   ar
    16    16    17   ar
    17    17    18   ar
    18    18    19   ar
    19    19    21    1
    20    21    22    1
    21    19    20   ar
    22    20    23    1
    23    23    24    1
    24     1    25    1
    25    25    26    1
    26    25    36    1
    27    36    37    1
    28    37    38    1
    29    38    39    1
    30    38    40    1
    31    25    28    1
    32    28    29   ar
    33    29    30   ar
    34    30    31   ar
    35    31    32   ar
    36    32    34    1
    37    34    35    3
    38    32    33   ar
    39    12     2   ar
    40    20    15   ar
    41    33    28   ar
    42    10     4   ar
    43    26    27    1
@<TRIPOS>MOLECULE
*****
 40 43 0 0 0
SMALL
GASTEIGER

@<TRIPOS>ATOM
      1 C          62.5291   88.5007   11.3768 C.3     1  UNL1        0.0808
      2 C          62.2917   86.0995   10.4137 C.ar    1  UNL1        0.2211
      3 N          62.4253   84.6145   10.5786 N.ar    1  UNL1       -0.2119
      4 C          62.9299   84.0460   11.8718 C.ar    1  UNL1        0.0844
      5 C          63.0635   82.5611   12.0368 C.ar    1  UNL1        0.0197
      6 C          63.5680   81.9925   13.3299 C.ar    1  UNL1        0.0082
      7 C          63.9390   82.9089   14.4580 C.ar    1  UNL1        0.0347
      8 BR         64.4436   82.3403   15.7511 Br      1  UNL1       -0.0490
      9 C          63.8054   84.3938   14.2930 C.ar    1  UNL1        0.0082
     10 C          63.3009   84.9624   12.9999 C.ar    1  UNL1        0.0181
     11 C          63.1673   86.4472   12.8349 C.ar    1  UNL1        0.0023
     12 C          62.6627   87.0158   11.5418 C.ar    1  UNL1        0.0375
     13 C          61.7081   85.8000    7.8997 C.3     1  UNL1        0.2542
     14 O          61.7871   86.6680    9.1206 O.3     1  UNL1       -0.4563
     15 C          63.0488   89.4231   12.4394 C.ar    1  UNL1        0.0245
     16 C          62.7647   89.1381   13.8845 C.ar    1  UNL1        0.0200
     17 C          63.2844   90.0605   14.9471 C.ar    1  UNL1        0.1019
     18 N          64.0882   91.2679   14.5646 N.ar    1  UNL1       -0.2076
     19 C          64.3722   91.5529   13.1196 C.ar    1  UNL1        0.2598
     20 C          63.8525   90.6305   12.0570 C.ar    1  UNL1        0.1879
     21 O          65.1759   92.7602   12.7372 O.3     1  UNL1       -0.4541
     22 C          66.6070   92.6057   12.3152 C.3     1  UNL1        0.2543
     23 O          64.1365   90.9154   10.6120 O.3     1  UNL1       -0.4670
     24 C          63.6234   92.1760    9.9812 C.3     1  UNL1        0.2527
     25 C          61.8758   89.0632   10.1493 C.3     1  UNL1        0.1159
     26 O          63.1128   88.7658    9.3547 O.3     1  UNL1       -0.3820
     27 H          63.0596   89.2113    8.4947 H       1  UNL1        0.2107
     28 C          60.6389   89.3606   10.9439 C.ar    1  UNL1        0.0030
     29 C          59.9352   88.2574   11.6773 C.ar    1  UNL1       -0.0020
     30 C          58.6982   88.5549   12.4719 C.ar    1  UNL1        0.0004
     31 C          58.1648   89.9555   12.5331 C.ar    1  UNL1        0.0103
     32 C          58.8685   91.0587   11.7997 C.ar    1  UNL1        0.0682
     33 C          60.1055   90.7613   11.0051 C.ar    1  UNL1        0.0083
     34 C          58.3351   92.4594   11.8609 C.1     1  UNL1        0.1004
     35 N          57.8017   93.8600   11.9222 N.1     1  UNL1       -0.1908
     36 C          61.2226   89.6257    8.9218 C.3     1  UNL1        0.0491
     37 C          59.7696   89.3625    8.6579 C.3     1  UNL1        0.0750
     38 N          59.3377   88.7958    7.3379 N.3     1  UNL1       -0.2702
     39 C          59.3404   89.6617    6.1131 C.3     1  UNL1        0.0897
     40 C          58.9032   87.3633    7.2428 C.3     1  UNL1        0.0897
@<TRIPOS>BOND
     1    13    14    1
     2    14     2    1
     3     2     3   ar
     4     3     4   ar
     5     4     5   ar
     6     5     6   ar
     7     6     7   ar
     8     7     8    1
     9     7     9   ar
    10     9    10   ar
    11    10    11   ar
    12    11    12   ar
    13     1    12    1
    14     1    15    1
    15    15    16   ar
    16    16    17   ar
    17    17    18   ar
    18    18    19   ar
    19    19    21    1
    20    21    22    1
    21    19    20   ar
    22    20    23    1
    23    23    24    1
    24     1    25    1
    25    25    26    1
    26    25    36    1
    27    36    37    1
    28    37    38    1
    29    38    39    1
    30    38    40    1
    31    25    28    1
    32    28    29   ar
    33    29    30   ar
    34    30    31   ar
    35    31    32   ar
    36    32    34    1
    37    34    35    3
    38    32    33   ar
    39    12     2   ar
    40    20    15   ar
    41    33    28   ar
    42    10     4   ar
    43    26    27    1
@<TRIPOS>MOLECULE
*****
 40 43 0 0 0
SMALL
GASTEIGER

@<TRIPOS>ATOM
      1 C          62.6318   88.9905   11.7901 C.3     1  UNL1        0.0808
      2 C          63.8999   90.4532   13.5228 C.ar    1  UNL1        0.2211
      3 N          64.7734   91.6317   13.8367 N.ar    1  UNL1       -0.2119
      4 C          65.2521   92.5258   12.7315 C.ar    1  UNL1        0.0844
      5 C          66.1255   93.7042   13.0453 C.ar    1  UNL1        0.0197
      6 C          66.6042   94.5983   11.9401 C.ar    1  UNL1        0.0082
      7 C          66.2095   94.3140   10.5212 C.ar    1  UNL1        0.0347
      8 BR         66.6883   95.2082    9.4160 Br      1  UNL1       -0.0490
      9 C          65.3361   93.1356   10.2074 C.ar    1  UNL1        0.0082
     10 C          64.8574   92.2415   11.3125 C.ar    1  UNL1        0.0181
     11 C          63.9840   91.0631   10.9988 C.ar    1  UNL1        0.0023
     12 C          63.5053   90.1689   12.1039 C.ar    1  UNL1        0.0375
     13 C          63.5257   90.0089   16.0552 C.3     1  UNL1        0.2542
     14 O          63.4212   89.5591   14.6280 O.3     1  UNL1       -0.4563
     15 C          62.9853   87.6326   12.3204 C.ar    1  UNL1        0.0245
     16 C          63.7887   87.5055   13.5808 C.ar    1  UNL1        0.0200
     17 C          64.1422   86.1476   14.1111 C.ar    1  UNL1        0.1019
     18 N          63.6924   84.9169   13.3810 N.ar    1  UNL1       -0.2076
     19 C          62.8890   85.0440   12.1207 C.ar    1  UNL1        0.2598
     20 C          62.5355   86.4019   11.5904 C.ar    1  UNL1        0.1879
     21 O          62.4392   83.8133   11.3907 O.3     1  UNL1       -0.4541
     22 C          62.8082   82.4557   11.9110 C.3     1  UNL1        0.2543
     23 O          61.7322   86.5290   10.3301 O.3     1  UNL1       -0.4670
     24 C          62.2982   86.0453    9.0278 C.3     1  UNL1        0.2527
     25 C          61.4050   89.1699   10.9460 C.3     1  UNL1        0.1159
     26 O          62.2604   89.2296    9.7153 O.3     1  UNL1       -0.3820
     27 H          61.7281   89.5404    8.9663 H       1  UNL1        0.2107
     28 C          60.5495   89.1102   12.1767 C.ar    1  UNL1        0.0030
     29 C          61.1399   89.4347   13.5169 C.ar    1  UNL1       -0.0020
     30 C          60.2843   89.3750   14.7476 C.ar    1  UNL1        0.0004
     31 C          58.8386   88.9908   14.6381 C.ar    1  UNL1        0.0103
     32 C          58.2482   88.6663   13.2978 C.ar    1  UNL1        0.0682
     33 C          59.1036   88.7260   12.0672 C.ar    1  UNL1        0.0083
     34 C          56.8023   88.2822   13.1883 C.1     1  UNL1        0.1004
     35 N          55.3565   87.8980   13.0788 N.1     1  UNL1       -0.1908
     36 C          60.1781   89.3493   10.1019 C.3     1  UNL1        0.0491
     37 C          60.3113   89.7129    8.6527 C.3     1  UNL1        0.0750
     38 N          59.5459   88.9478    7.6141 N.3     1  UNL1       -0.2702
     39 C          59.1482   87.5247    7.8723 C.3     1  UNL1        0.0897
     40 C          59.1782   89.6057    6.3172 C.3     1  UNL1        0.0897
@<TRIPOS>BOND
     1    13    14    1
     2    14     2    1
     3     2     3   ar
     4     3     4   ar
     5     4     5   ar
     6     5     6   ar
     7     6     7   ar
     8     7     8    1
     9     7     9   ar
    10     9    10   ar
    11    10    11   ar
    12    11    12   ar
    13     1    12    1
    14     1    15    1
    15    15    16   ar
    16    16    17   ar
    17    17    18   ar
    18    18    19   ar
    19    19    21    1
    20    21    22    1
    21    19    20   ar
    22    20    23    1
    23    23    24    1
    24     1    25    1
    25    25    26    1
    26    25    36    1
    27    36    37    1
    28    37    38    1
    29    38    39    1
    30    38    40    1
    31    25    28    1
    32    28    29   ar
    33    29    30   ar
    34    30    31   ar
    35    31    32   ar
    36    32    34    1
    37    34    35    3
    38    32    33   ar
    39    12     2   ar
    40    20    15   ar
    41    33    28   ar
    42    10     4   ar
    43    26    27    1
