@<TRIPOS>MOLECULE
*****
 20 22 0 0 0
SMALL
GASTEIGER

@<TRIPOS>ATOM
      1 C          62.4053   89.0783   10.6178 C.ar    1  UNL1        0.0657
      2 C          62.7545   90.4728   10.1897 C.ar    1  UNL1        0.0207
      3 C          63.4839   91.3855   11.1304 C.ar    1  UNL1        0.0384
      4 C          63.8640   90.9038   12.4991 C.ar    1  UNL1        0.1387
      5 C          63.5147   89.5092   12.9272 C.ar    1  UNL1        0.0384
      6 C          62.7854   88.5965   11.9865 C.ar    1  UNL1        0.0207
      7 C          60.0334   87.2898    8.1195 C.ar    1  UNL1        0.1196
      8 C          60.4057   88.4849    8.9460 C.ar    1  UNL1        0.1022
      9 N          61.6759   88.1654    9.6771 N.ar    1  UNL1       -0.2864
     10 C          62.0887   86.7729    9.3023 C.ar    1  UNL1        0.1828
     11 N          61.0736   86.2317    8.3397 N.ar    1  UNL1       -0.2220
     12 O          64.5933   91.8166   13.4398 O.3     1  UNL1       -0.4740
     13 C          65.9724   92.2982   13.0991 C.3     1  UNL1        0.2226
     14 C          66.1554   93.6033   12.3824 C.3     1  UNL1        0.1202
     15 N          66.8515   93.6383   11.0543 N.3     1  UNL1       -0.2653
     16 C          67.5190   92.4039   10.5245 C.3     1  UNL1        0.1047
     17 C          68.2151   92.4390    9.1963 C.3     1  UNL1        0.1595
     18 O          68.2438   93.7086    8.3978 O.3     1  UNL1       -0.3508
     19 C          67.5764   94.9430    8.9276 C.3     1  UNL1        0.1595
     20 C          66.8802   94.9079   10.2559 C.3     1  UNL1        0.1047
@<TRIPOS>BOND
     1     7     8   ar
     2     8     9   ar
     3     9     1    1
     4     1     2   ar
     5     2     3   ar
     6     3     4   ar
     7     4    12    1
     8    12    13    1
     9    13    14    1
    10    14    15    1
    11    15    16    1
    12    16    17    1
    13    17    18    1
    14    18    19    1
    15    19    20    1
    16     4     5   ar
    17     5     6   ar
    18     9    10   ar
    19    10    11   ar
    20    11     7   ar
    21     6     1   ar
    22    20    15    1
@<TRIPOS>MOLECULE
*****
 20 22 0 0 0
SMALL
GASTEIGER

@<TRIPOS>ATOM
      1 C          61.7403   86.0941    9.5140 C.ar    1  UNL1        0.0657
      2 C          62.7157   85.3434    8.6567 C.ar    1  UNL1        0.0207
      3 C          63.5667   84.2642    9.2578 C.ar    1  UNL1        0.0384
      4 C          63.4422   83.9358   10.7161 C.ar    1  UNL1        0.1387
      5 C          62.4667   84.6865   11.5733 C.ar    1  UNL1        0.0384
      6 C          61.6158   85.7656   10.9723 C.ar    1  UNL1        0.0207
      7 C          59.2643   88.3303    7.5303 C.ar    1  UNL1        0.1196
      8 C          59.8787   86.9927    7.8192 C.ar    1  UNL1        0.1022
      9 N          60.8893   87.1733    8.9129 N.ar    1  UNL1       -0.2864
     10 C          60.8994   88.6224    9.3001 C.ar    1  UNL1        0.1828
     11 N          59.8951   89.3375    8.4456 N.ar    1  UNL1       -0.2220
     12 O          64.2932   82.8566   11.3172 O.3     1  UNL1       -0.4740
     13 C          63.6952   81.8850   12.2910 C.3     1  UNL1        0.2226
     14 C          64.0115   81.9977   13.7529 C.3     1  UNL1        0.1202
     15 N          63.8219   83.3055   14.4626 N.3     1  UNL1       -0.2653
     16 C          62.5977   83.5347   15.2986 C.3     1  UNL1        0.1047
     17 C          62.4082   84.8425   16.0082 C.3     1  UNL1        0.1595
     18 O          63.4430   85.9212   15.8820 O.3     1  UNL1       -0.3508
     19 C          64.6671   85.6920   15.0460 C.3     1  UNL1        0.1595
     20 C          64.8566   84.3841   14.3363 C.3     1  UNL1        0.1047
@<TRIPOS>BOND
     1     7     8   ar
     2     8     9   ar
     3     9     1    1
     4     1     2   ar
     5     2     3   ar
     6     3     4   ar
     7     4    12    1
     8    12    13    1
     9    13    14    1
    10    14    15    1
    11    15    16    1
    12    16    17    1
    13    17    18    1
    14    18    19    1
    15    19    20    1
    16     4     5   ar
    17     5     6   ar
    18     9    10   ar
    19    10    11   ar
    20    11     7   ar
    21     6     1   ar
    22    20    15    1
@<TRIPOS>MOLECULE
*****
 20 22 0 0 0
SMALL
GASTEIGER

@<TRIPOS>ATOM
      1 C          65.4764   91.3099   13.8872 C.ar    1  UNL1        0.0657
      2 C          64.9375   90.0966   14.5854 C.ar    1  UNL1        0.0207
      3 C          63.7324   89.3903   14.0389 C.ar    1  UNL1        0.0384
      4 C          63.0661   89.8973   12.7943 C.ar    1  UNL1        0.1387
      5 C          63.6050   91.1106   12.0961 C.ar    1  UNL1        0.0384
      6 C          64.8102   91.8169   12.6426 C.ar    1  UNL1        0.0207
      7 C          68.1305   93.3445   15.8576 C.ar    1  UNL1        0.1196
      8 C          66.7337   92.8217   15.6980 C.ar    1  UNL1        0.1022
      9 N          66.6817   92.0163   14.4337 N.ar    1  UNL1       -0.2864
     10 C          68.0464   92.0412   13.8118 C.ar    1  UNL1        0.1828
     11 N          68.9419   92.8620   14.6917 N.ar    1  UNL1       -0.2220
     12 O          61.8609   89.1909   12.2478 O.3     1  UNL1       -0.4740
     13 C          60.9424   89.9004   11.2977 C.3     1  UNL1        0.2226
     14 C          61.1328   89.7502    9.8173 C.3     1  UNL1        0.1202
     15 N          60.7900   88.4540    9.1448 N.3     1  UNL1       -0.2653
     16 C          59.5496   88.3483    8.3080 C.3     1  UNL1        0.1047
     17 C          59.2068   87.0522    7.6354 C.3     1  UNL1        0.1595
     18 O          60.1044   85.8616    7.7997 O.3     1  UNL1       -0.3508
     19 C          61.3447   85.9672    8.6366 C.3     1  UNL1        0.1595
     20 C          61.6875   87.2635    9.3091 C.3     1  UNL1        0.1047
@<TRIPOS>BOND
     1     7     8   ar
     2     8     9   ar
     3     9     1    1
     4     1     2   ar
     5     2     3   ar
     6     3     4   ar
     7     4    12    1
     8    12    13    1
     9    13    14    1
    10    14    15    1
    11    15    16    1
    12    16    17    1
    13    17    18    1
    14    18    19    1
    15    19    20    1
    16     4     5   ar
    17     5     6   ar
    18     9    10   ar
    19    10    11   ar
    20    11     7   ar
    21     6     1   ar
    22    20    15    1
@<TRIPOS>MOLECULE
*****
 20 22 0 0 0
SMALL
GASTEIGER

@<TRIPOS>ATOM
      1 C          65.3317   91.1137   13.6837 C.ar    1  UNL1        0.0657
      2 C          64.8821   89.8476   14.3507 C.ar    1  UNL1        0.0207
      3 C          63.7368   89.0651   13.7799 C.ar    1  UNL1        0.0384
      4 C          63.0411   89.5486   12.5421 C.ar    1  UNL1        0.1387
      5 C          63.4907   90.8147   11.8751 C.ar    1  UNL1        0.0384
      6 C          64.6360   91.5972   12.4459 C.ar    1  UNL1        0.0207
      7 C          67.8004   93.3335   15.6947 C.ar    1  UNL1        0.1196
      8 C          66.4398   92.7331   15.4989 C.ar    1  UNL1        0.1022
      9 N          66.4770   91.8963   14.2545 N.ar    1  UNL1       -0.2864
     10 C          67.8606   91.9795   13.6812 C.ar    1  UNL1        0.1828
     11 N          68.6785   92.8677   14.5713 N.ar    1  UNL1       -0.2220
     12 O          61.8957   88.7660   11.9712 O.3     1  UNL1       -0.4740
     13 C          62.1514   87.7045   10.9428 C.3     1  UNL1        0.2226
     14 C          61.6889   86.2983   11.1854 C.3     1  UNL1        0.1202
     15 N          62.6622   85.2599   11.6592 N.3     1  UNL1       -0.2653
     16 C          63.1340   84.1900   10.7196 C.3     1  UNL1        0.1047
     17 C          64.1073   83.1517   11.1933 C.3     1  UNL1        0.1595
     18 O          64.6089   83.1832   12.6067 O.3     1  UNL1       -0.3508
     19 C          64.1371   84.2530   13.5462 C.3     1  UNL1        0.1595
     20 C          63.1638   85.2914   13.0724 C.3     1  UNL1        0.1047
@<TRIPOS>BOND
     1     7     8   ar
     2     8     9   ar
     3     9     1    1
     4     1     2   ar
     5     2     3   ar
     6     3     4   ar
     7     4    12    1
     8    12    13    1
     9    13    14    1
    10    14    15    1
    11    15    16    1
    12    16    17    1
    13    17    18    1
    14    18    19    1
    15    19    20    1
    16     4     5   ar
    17     5     6   ar
    18     9    10   ar
    19    10    11   ar
    20    11     7   ar
    21     6     1   ar
    22    20    15    1
@<TRIPOS>MOLECULE
*****
 20 22 0 0 0
SMALL
GASTEIGER

@<TRIPOS>ATOM
      1 C          61.2418   87.4043   10.4652 C.ar    1  UNL1        0.0657
      2 C          61.7159   87.2499    9.0505 C.ar    1  UNL1        0.0207
      3 C          62.4928   86.0313    8.6488 C.ar    1  UNL1        0.0384
      4 C          62.7955   84.9672    9.6617 C.ar    1  UNL1        0.1387
      5 C          62.3214   85.1216   11.0763 C.ar    1  UNL1        0.0384
      6 C          61.5445   86.3401   11.4781 C.ar    1  UNL1        0.0207
      7 C          58.9505   90.1110   12.0432 C.ar    1  UNL1        0.1196
      8 C          59.4925   88.7128   12.0057 C.ar    1  UNL1        0.1022
      9 N          60.4648   88.6229   10.8670 N.ar    1  UNL1       -0.2864
     10 C          60.5238   89.9655   10.2008 C.ar    1  UNL1        0.1828
     11 N          59.5879   90.8852   10.9276 N.ar    1  UNL1       -0.2220
     12 O          63.5725   83.7485    9.2598 O.3     1  UNL1       -0.4740
     13 C          64.4723   83.0721   10.2511 C.3     1  UNL1        0.2226
     14 C          63.9614   81.9186   11.0626 C.3     1  UNL1        0.1202
     15 N          63.4952   82.1405   12.4709 N.3     1  UNL1       -0.2653
     16 C          62.2388   81.4813   12.9577 C.3     1  UNL1        0.1047
     17 C          61.7725   81.7033   14.3660 C.3     1  UNL1        0.1595
     18 O          62.5627   82.5844   15.2876 O.3     1  UNL1       -0.3508
     19 C          63.8191   83.2436   14.8008 C.3     1  UNL1        0.1595
     20 C          64.2853   83.0216   13.3925 C.3     1  UNL1        0.1047
@<TRIPOS>BOND
     1     7     8   ar
     2     8     9   ar
     3     9     1    1
     4     1     2   ar
     5     2     3   ar
     6     3     4   ar
     7     4    12    1
     8    12    13    1
     9    13    14    1
    10    14    15    1
    11    15    16    1
    12    16    17    1
    13    17    18    1
    14    18    19    1
    15    19    20    1
    16     4     5   ar
    17     5     6   ar
    18     9    10   ar
    19    10    11   ar
    20    11     7   ar
    21     6     1   ar
    22    20    15    1
@<TRIPOS>MOLECULE
*****
 20 22 0 0 0
SMALL
GASTEIGER

@<TRIPOS>ATOM
      1 C          63.3618   84.1481   13.7963 C.ar    1  UNL1        0.0657
      2 C          64.0963   84.4627   15.0657 C.ar    1  UNL1        0.0207
      3 C          64.5326   85.8692   15.3508 C.ar    1  UNL1        0.0384
      4 C          64.2344   86.9611   14.3664 C.ar    1  UNL1        0.1387
      5 C          63.4999   86.6464   13.0970 C.ar    1  UNL1        0.0384
      6 C          63.0636   85.2399   12.8120 C.ar    1  UNL1        0.0207
      7 C          62.7021   80.5599   12.4712 C.ar    1  UNL1        0.1196
      8 C          63.3939   81.8870   12.3709 C.ar    1  UNL1        0.1022
      9 N          62.9254   82.7415   13.5112 N.ar    1  UNL1       -0.2864
     10 C          61.9439   81.9425   14.3163 C.ar    1  UNL1        0.1828
     11 N          61.8059   80.5942   13.6736 N.ar    1  UNL1       -0.2220
     12 O          64.6708   88.3677   14.6515 O.3     1  UNL1       -0.4740
     13 C          63.6628   89.4784   14.6607 C.3     1  UNL1        0.2226
     14 C          64.0161   90.8070   15.2608 C.3     1  UNL1        0.1202
     15 N          65.0043   91.7016   14.5731 N.3     1  UNL1       -0.2653
     16 C          65.9997   92.4805   15.3809 C.3     1  UNL1        0.1047
     17 C          66.9880   93.3751   14.6932 C.3     1  UNL1        0.1595
     18 O          66.9809   93.4908   13.1977 O.3     1  UNL1       -0.3508
     19 C          65.9855   92.7120   12.3899 C.3     1  UNL1        0.1595
     20 C          64.9972   91.8173   13.0776 C.3     1  UNL1        0.1047
@<TRIPOS>BOND
     1     7     8   ar
     2     8     9   ar
     3     9     1    1
     4     1     2   ar
     5     2     3   ar
     6     3     4   ar
     7     4    12    1
     8    12    13    1
     9    13    14    1
    10    14    15    1
    11    15    16    1
    12    16    17    1
    13    17    18    1
    14    18    19    1
    15    19    20    1
    16     4     5   ar
    17     5     6   ar
    18     9    10   ar
    19    10    11   ar
    20    11     7   ar
    21     6     1   ar
    22    20    15    1
@<TRIPOS>MOLECULE
*****
 20 22 0 0 0
SMALL
GASTEIGER

@<TRIPOS>ATOM
      1 C          65.0161   91.6793   12.8371 C.ar    1  UNL1        0.0657
      2 C          65.6330   91.3541   14.1651 C.ar    1  UNL1        0.0207
      3 C          65.1141   90.2001   14.9706 C.ar    1  UNL1        0.0384
      4 C          63.9784   89.3712   14.4481 C.ar    1  UNL1        0.1387
      5 C          63.3615   89.6964   13.1201 C.ar    1  UNL1        0.0384
      6 C          63.8803   90.8504   12.3146 C.ar    1  UNL1        0.0207
      7 C          66.0488   94.3027   10.1692 C.ar    1  UNL1        0.1196
      8 C          65.3795   93.0156   10.5507 C.ar    1  UNL1        0.1022
      9 N          65.5349   92.8334   12.0315 N.ar    1  UNL1       -0.2864
     10 C          66.3002   94.0079   12.5652 C.ar    1  UNL1        0.1828
     11 N          66.6178   94.9160   11.4143 N.ar    1  UNL1       -0.2220
     12 O          63.4595   88.2171   15.2536 O.3     1  UNL1       -0.4740
     13 C          64.1305   86.8785   15.1646 C.3     1  UNL1        0.2226
     14 C          64.1885   86.1544   13.8522 C.3     1  UNL1        0.1202
     15 N          63.5280   84.8158   13.7043 N.3     1  UNL1       -0.2653
     16 C          62.9929   84.1059   14.9125 C.3     1  UNL1        0.1047
     17 C          62.3324   82.7673   14.7646 C.3     1  UNL1        0.1595
     18 O          62.2071   82.1386   13.4085 O.3     1  UNL1       -0.3508
     19 C          62.7422   82.8484   12.2003 C.3     1  UNL1        0.1595
     20 C          63.4027   84.1871   12.3482 C.3     1  UNL1        0.1047
@<TRIPOS>BOND
     1     7     8   ar
     2     8     9   ar
     3     9     1    1
     4     1     2   ar
     5     2     3   ar
     6     3     4   ar
     7     4    12    1
     8    12    13    1
     9    13    14    1
    10    14    15    1
    11    15    16    1
    12    16    17    1
    13    17    18    1
    14    18    19    1
    15    19    20    1
    16     4     5   ar
    17     5     6   ar
    18     9    10   ar
    19    10    11   ar
    20    11     7   ar
    21     6     1   ar
    22    20    15    1
@<TRIPOS>MOLECULE
*****
 20 22 0 0 0
SMALL
GASTEIGER

@<TRIPOS>ATOM
      1 C          63.5394   84.8646   13.5431 C.ar    1  UNL1        0.0657
      2 C          63.0345   85.8023   12.4869 C.ar    1  UNL1        0.0207
      3 C          63.2808   87.2765   12.6130 C.ar    1  UNL1        0.0384
      4 C          64.0320   87.8130   13.7954 C.ar    1  UNL1        0.1387
      5 C          64.5369   86.8752   14.8516 C.ar    1  UNL1        0.0384
      6 C          64.2906   85.4010   14.7255 C.ar    1  UNL1        0.0207
      7 C          62.6734   81.2220   12.5197 C.ar    1  UNL1        0.1196
      8 C          62.7590   82.6861   12.2051 C.ar    1  UNL1        0.1022
      9 N          63.2931   83.3903   13.4171 N.ar    1  UNL1       -0.2864
     10 C          63.5376   82.3613   14.4808 C.ar    1  UNL1        0.1828
     11 N          63.1547   81.0213   13.9262 N.ar    1  UNL1       -0.2220
     12 O          64.2783   89.2873   13.9215 O.3     1  UNL1       -0.4740
     13 C          63.3093   90.2635   13.3231 C.3     1  UNL1        0.2226
     14 C          63.6318   90.9396   12.0235 C.3     1  UNL1        0.1202
     15 N          64.7175   91.9729   11.9649 N.3     1  UNL1       -0.2653
     16 C          65.0950   92.5905   10.6511 C.3     1  UNL1        0.1047
     17 C          66.1807   93.6238   10.5925 C.3     1  UNL1        0.1595
     18 O          66.8890   94.0396   11.8477 O.3     1  UNL1       -0.3508
     19 C          66.5115   93.4220   13.1615 C.3     1  UNL1        0.1595
     20 C          65.4257   92.3886   13.2201 C.3     1  UNL1        0.1047
@<TRIPOS>BOND
     1     7     8   ar
     2     8     9   ar
     3     9     1    1
     4     1     2   ar
     5     2     3   ar
     6     3     4   ar
     7     4    12    1
     8    12    13    1
     9    13    14    1
    10    14    15    1
    11    15    16    1
    12    16    17    1
    13    17    18    1
    14    18    19    1
    15    19    20    1
    16     4     5   ar
    17     5     6   ar
    18     9    10   ar
    19    10    11   ar
    20    11     7   ar
    21     6     1   ar
    22    20    15    1
@<TRIPOS>MOLECULE
*****
 20 22 0 0 0
SMALL
GASTEIGER

@<TRIPOS>ATOM
      1 C          65.0727   91.2368   13.8776 C.ar    1  UNL1        0.0657
      2 C          64.2987   90.2015   14.6385 C.ar    1  UNL1        0.0207
      3 C          63.0554   89.6082   14.0451 C.ar    1  UNL1        0.0384
      4 C          62.5862   90.0502   12.6906 C.ar    1  UNL1        0.1387
      5 C          63.3602   91.0854   11.9297 C.ar    1  UNL1        0.0384
      6 C          64.6034   91.6787   12.5232 C.ar    1  UNL1        0.0207
      7 C          68.6289   92.4864   14.8038 C.ar    1  UNL1        0.1196
      8 C          67.6934   91.7634   13.8807 C.ar    1  UNL1        0.1022
      9 N          66.3160   91.8301   14.4711 N.ar    1  UNL1       -0.2864
     10 C          66.4003   92.5943   15.7590 C.ar    1  UNL1        0.1828
     11 N          67.8297   92.9999   15.9647 N.ar    1  UNL1       -0.2220
     12 O          61.3429   89.4568   12.0972 O.3     1  UNL1       -0.4740
     13 C          61.4447   88.4892   10.9556 C.3     1  UNL1        0.2226
     14 C          61.1759   87.0309   11.1821 C.3     1  UNL1        0.1202
     15 N          62.0223   85.9974   10.4999 N.3     1  UNL1       -0.2653
     16 C          62.5979   84.8592   11.2893 C.3     1  UNL1        0.1047
     17 C          63.4443   83.8257   10.6071 C.3     1  UNL1        0.1595
     18 O          63.7151   83.9304    9.1354 O.3     1  UNL1       -0.3508
     19 C          63.1395   85.0686    8.3460 C.3     1  UNL1        0.1595
     20 C          62.2930   86.1021    9.0283 C.3     1  UNL1        0.1047
@<TRIPOS>BOND
     1     7     8   ar
     2     8     9   ar
     3     9     1    1
     4     1     2   ar
     5     2     3   ar
     6     3     4   ar
     7     4    12    1
     8    12    13    1
     9    13    14    1
    10    14    15    1
    11    15    16    1
    12    16    17    1
    13    17    18    1
    14    18    19    1
    15    19    20    1
    16     4     5   ar
    17     5     6   ar
    18     9    10   ar
    19    10    11   ar
    20    11     7   ar
    21     6     1   ar
    22    20    15    1
