@<TRIPOS>MOLECULE
*****
 67 72 0 0 0
SMALL
GASTEIGER

@<TRIPOS>ATOM
      1 C          62.3637   84.8783    7.1204 C.3     1  UNL1        0.1530
      2 C          62.2922   85.0954    5.6379 C.3     1  UNL1        0.0553
      3 C          62.3231   85.6479    4.2437 C.ar    1  UNL1       -0.0199
      4 C          62.1228   85.4016    2.7777 C.ar    1  UNL1       -0.0029
      5 C          62.3469   86.5109    1.7933 C.ar    1  UNL1        0.0143
      6 C          62.7713   87.8666    2.2750 C.ar    1  UNL1        0.0503
      7 C          62.9716   88.1130    3.7409 C.ar    1  UNL1        0.0143
      8 C          62.7475   87.0036    4.7253 C.ar    1  UNL1       -0.0029
      9 N          63.3484   90.3237    0.9986 N.am    1  UNL1       -0.2839
     10 C          63.7553   91.7674    1.0075 C.2     1  UNL1        0.2279
     11 O          63.6839   91.9845   -0.4750 O.2     1  UNL1       -0.2747
     12 C          64.1794   93.1588    1.3737 C.3     1  UNL1        0.1071
     13 C          64.5962   94.4170    2.0760 C.3     1  UNL1        0.1053
     14 N          64.9812   95.4690    3.0737 N.pl3   1  UNL1       -0.2823
     15 C          65.3122   96.2534    4.3086 C.2     1  UNL1        0.0818
     16 C          65.5700   96.7248    5.7091 C.2     1  UNL1        0.0818
     17 N          65.7396   96.8558    7.1937 N.pl3   1  UNL1       -0.2823
     18 C          65.8110   96.6387    8.6762 C.3     1  UNL1        0.1053
     19 C          65.7802   96.0862   10.0704 C.3     1  UNL1        0.1071
     20 C          65.6489   95.2305   11.2953 C.2     1  UNL1        0.2279
     21 O          66.0339   96.2823   12.2929 O.2     1  UNL1       -0.2747
     22 N          65.4248   94.1211   12.2797 N.am    1  UNL1       -0.2839
     23 C          65.1209   92.8226   12.9664 C.ar    1  UNL1        0.0503
     24 C          64.7548   91.4104   13.3155 C.ar    1  UNL1        0.0143
     25 C          64.3479   89.9667   13.3066 C.ar    1  UNL1       -0.0029
     26 C          63.9238   88.5753   12.9404 C.ar    1  UNL1       -0.0202
     27 C          64.2898   89.9874   12.5913 C.ar    1  UNL1       -0.0029
     28 C          64.6967   91.4311   12.6002 C.ar    1  UNL1        0.0143
     29 C          63.5071   87.3171   12.2381 C.3     1  UNL1        0.0530
     30 C          63.1220   86.2652   11.2404 C.3     1  UNL1        0.1553
     31 C          62.7910   85.4807   10.0055 C.2     1  UNL1        0.2390
     32 O          62.4871   84.1823   10.6922 O.2     1  UNL1       -0.2736
     33 N          62.5332   85.0093    8.6050 N.am    1  UNL1       -0.2969
     34 C          65.4085   96.0713    5.9588 C.2     1  UNL1        0.0818
     35 C          65.1507   95.5999    4.5583 C.2     1  UNL1        0.0818
     36 H          63.2080   90.1280    0.0441 H       1  UNL1        0.1549
     37 H          65.6421   94.6359   13.0902 H       1  UNL1        0.1549
     38 H          62.2930   84.0825    8.8342 H       1  UNL1        0.1499
     39 N          62.4361   82.5137    8.1942 N.am    1  UNL1       -0.2991
     40 C          61.9567   83.4346    7.1115 C.2     1  UNL1        0.2409
     41 O          61.0705   82.9119    6.0201 O.2     1  UNL1       -0.2733
     42 H          63.0177   82.8568    8.9106 H       1  UNL1        0.1498
     43 C          62.0292   81.0699    8.1854 C.3     1  UNL1        0.1164
     44 C          62.6246   78.5421   11.8604 C.ar    1  UNL1        0.0813
     45 C          62.3980   77.8887   10.5293 C.ar    1  UNL1        0.0071
     46 C          62.1995   78.7313    9.3043 C.ar    1  UNL1       -0.0024
     47 C          62.2276   80.2273    9.4104 C.ar    1  UNL1       -0.0026
     48 C          62.4542   80.8807   10.7415 C.ar    1  UNL1       -0.0024
     49 C          62.6527   80.0381   11.9665 C.ar    1  UNL1        0.0071
     50 N          63.4609   76.3469   12.9701 N.2     1  UNL1       -0.0994
     51 C          62.8231   77.6996   13.0854 C.2     1  UNL1        0.3093
     52 N          62.3837   78.2098   14.4258 N.pl3   1  UNL1       -0.2466
     53 H          63.5912   75.7939   13.7742 H       1  UNL1        0.3633
     54 H          62.5139   77.6569   15.2298 H       1  UNL1        0.2884
     55 H          61.9650   79.0977   14.5014 H       1  UNL1        0.2884
     56 N          62.8979   85.1558   12.2248 N.3     1  UNL1       -0.1753
     57 H          63.1967   84.2933   11.7695 H       1  UNL1        0.1489
     58 S          63.5718   85.1942   13.5644 S.O2    1  UNL1        0.0454
     59 O          62.2938   85.6639   14.1938 O.2     1  UNL1       -0.1572
     60 O          64.8498   84.7245   12.9350 O.2     1  UNL1       -0.1572
     61 C          64.2456   85.2326   14.9039 C.3     1  UNL1        0.1952
     62 C          63.7426   86.1600   15.9702 C.ar    1  UNL1        0.0029
     63 C          63.1465   85.6027   17.2287 C.ar    1  UNL1       -0.0025
     64 C          62.6435   86.5300   18.2950 C.ar    1  UNL1       -0.0003
     65 C          62.7366   88.0147   18.1028 C.ar    1  UNL1       -0.0000
     66 C          63.3328   88.5721   16.8442 C.ar    1  UNL1       -0.0003
     67 C          63.8358   87.6447   15.7779 C.ar    1  UNL1       -0.0025
@<TRIPOS>BOND
     1    50    51    2
     2    51    52    1
     3    51    44    1
     4    44    45   ar
     5    45    46   ar
     6    46    47   ar
     7    47    43    1
     8    43    39    1
     9    39    40   am
    10    40    41    2
    11     1    40    1
    12     1     2    1
    13     2     3    1
    14     3     4   ar
    15     4     5   ar
    16     5     6   ar
    17     6     7   ar
    18     7     8   ar
    19     6     9    1
    20     9    10   am
    21    10    11    2
    22    10    12    1
    23    12    13    1
    24    13    14    1
    25    14    15    1
    26    15    16    2
    27    16    17    1
    28    17    18    1
    29    18    19    1
    30    19    20    1
    31    20    21    2
    32    20    22   am
    33    22    23    1
    34    23    24   ar
    35    24    25   ar
    36    25    26   ar
    37    26    27   ar
    38    27    28   ar
    39    26    29    1
    40    29    30    1
    41    30    56    1
    42    56    58    1
    43    58    59    2
    44    58    60    2
    45    58    61    1
    46    61    62    1
    47    62    63   ar
    48    63    64   ar
    49    64    65   ar
    50    65    66   ar
    51    66    67   ar
    52    30    31    1
    53    31    32    2
    54    31    33   am
    55    17    34    1
    56    34    35    2
    57    47    48   ar
    58    48    49   ar
    59    49    44   ar
    60    33     1    1
    61     8     3   ar
    62    35    14    1
    63    28    23   ar
    64    67    62   ar
    65    50    53    1
    66    52    54    1
    67    52    55    1
    68    39    42    1
    69     9    36    1
    70    22    37    1
    71    56    57    1
    72    33    38    1
@<TRIPOS>MOLECULE
*****
 67 72 0 0 0
SMALL
GASTEIGER

@<TRIPOS>ATOM
      1 C          62.6430   84.3385   10.0611 C.3     1  UNL1        0.1530
      2 C          62.2796   83.9239    8.6660 C.3     1  UNL1        0.0553
      3 C          62.0057   83.8508    7.1930 C.ar    1  UNL1       -0.0199
      4 C          61.5565   83.0215    6.0267 C.ar    1  UNL1       -0.0029
      5 C          61.5034   83.6243    4.6542 C.ar    1  UNL1        0.0143
      6 C          61.8994   85.0563    4.4480 C.ar    1  UNL1        0.0503
      7 C          62.3486   85.8856    5.6144 C.ar    1  UNL1        0.0143
      8 C          62.4018   85.2828    6.9869 C.ar    1  UNL1       -0.0029
      9 N          62.0291   86.7643    2.1974 N.am    1  UNL1       -0.2839
     10 C          62.3129   88.0812    1.5377 C.2     1  UNL1        0.2279
     11 O          61.9495   87.6666    0.1427 O.2     1  UNL1       -0.2747
     12 C          62.6843   89.4980    1.2143 C.3     1  UNL1        0.1071
     13 C          63.1218   90.9325    1.2459 C.3     1  UNL1        0.1053
     14 N          63.5998   92.3012    1.6308 N.pl3   1  UNL1       -0.2823
     15 C          64.0907   93.5245    2.3466 C.2     1  UNL1        0.0818
     16 C          64.5658   94.5316    3.3517 C.2     1  UNL1        0.0818
     17 N          64.9977   95.2637    4.5876 N.pl3   1  UNL1       -0.2823
     18 C          65.3610   95.6783    5.9827 C.3     1  UNL1        0.1053
     19 C          65.6349   95.7514    7.4557 C.3     1  UNL1        0.1071
     20 C          65.8033   95.4786    8.9209 C.2     1  UNL1        0.2279
     21 O          66.2813   96.8473    9.3059 O.2     1  UNL1       -0.2747
     22 N          65.8565   94.8759   10.2936 N.am    1  UNL1       -0.2839
     23 C          65.7913   93.9783   11.4936 C.ar    1  UNL1        0.0503
     24 C          65.6116   92.8379   12.4513 C.ar    1  UNL1        0.0143
     25 C          65.3277   91.5210   13.1110 C.ar    1  UNL1       -0.0029
     26 C          64.9563   90.1042   13.4345 C.ar    1  UNL1       -0.0202
     27 C          65.1360   91.2445   12.4768 C.ar    1  UNL1       -0.0029
     28 C          65.4198   92.5614   11.8170 C.ar    1  UNL1        0.0143
     29 C          64.5189   88.6697   13.4028 C.3     1  UNL1        0.0530
     30 C          64.0408   87.3010   13.0179 C.3     1  UNL1        0.1553
     31 C          63.5500   86.0776   12.3021 C.2     1  UNL1        0.2390
     32 O          63.4848   85.1800   13.5021 O.2     1  UNL1       -0.2736
     33 N          63.0748   85.0706   11.2970 N.am    1  UNL1       -0.2969
     34 C          64.5068   94.0403    3.8719 C.2     1  UNL1        0.0818
     35 C          64.0316   93.0333    2.8668 C.2     1  UNL1        0.0818
     36 H          61.7297   86.1922    1.4543 H       1  UNL1        0.1549
     37 H          66.1786   95.6789   10.7633 H       1  UNL1        0.1549
     38 H          62.9569   84.3222   11.9256 H       1  UNL1        0.1499
     39 N          62.7515   81.7428   10.0421 N.am    1  UNL1       -0.2991
     40 C          62.3592   83.0216   10.7208 C.2     1  UNL1        0.2409
     41 O          61.6830   82.9836   12.0592 O.2     1  UNL1       -0.2733
     42 H          63.1953   81.7677    9.1636 H       1  UNL1        0.1498
     43 C          62.4677   80.4259   10.7018 C.3     1  UNL1        0.1164
     44 C          64.2721   76.6478    9.0525 C.ar    1  UNL1        0.0813
     45 C          64.6489   77.9765    8.4673 C.ar    1  UNL1        0.0071
     46 C          64.0474   79.2359    9.0171 C.ar    1  UNL1       -0.0024
     47 C          63.0692   79.1665   10.1520 C.ar    1  UNL1       -0.0026
     48 C          62.6923   77.8377   10.7373 C.ar    1  UNL1       -0.0024
     49 C          63.2938   76.5784   10.1875 C.ar    1  UNL1        0.0071
     50 N          64.1973   74.6635    7.3771 N.2     1  UNL1       -0.0994
     51 C          64.8735   75.3885    8.5028 C.2     1  UNL1        0.3093
     52 N          66.1512   74.8540    9.0788 N.pl3   1  UNL1       -0.2466
     53 H          64.5920   73.8370    7.0163 H       1  UNL1        0.3633
     54 H          66.5460   74.0274    8.7180 H       1  UNL1        0.2884
     55 H          66.5951   75.3298    9.8176 H       1  UNL1        0.2884
     56 N          64.0940   86.6983   14.3904 N.3     1  UNL1       -0.1753
     57 H          65.0572   86.4001   14.5439 H       1  UNL1        0.1489
     58 S          63.6982   87.5156   15.5843 S.O2    1  UNL1        0.0454
     59 O          64.4376   86.5660   16.4795 O.2     1  UNL1       -0.1572
     60 O          62.9588   88.4653   14.6891 O.2     1  UNL1       -0.1572
     61 C          63.3024   88.3329   16.7782 C.3     1  UNL1        0.1952
     62 C          63.5317   89.8153   16.7818 C.ar    1  UNL1        0.0029
     63 C          62.9375   90.6687   15.7008 C.ar    1  UNL1       -0.0025
     64 C          63.1668   92.1511   15.7044 C.ar    1  UNL1       -0.0003
     65 C          63.9902   92.7800   16.7889 C.ar    1  UNL1       -0.0000
     66 C          64.5845   91.9266   17.8700 C.ar    1  UNL1       -0.0003
     67 C          64.3552   90.4442   17.8664 C.ar    1  UNL1       -0.0025
@<TRIPOS>BOND
     1    50    51    2
     2    51    52    1
     3    51    44    1
     4    44    45   ar
     5    45    46   ar
     6    46    47   ar
     7    47    43    1
     8    43    39    1
     9    39    40   am
    10    40    41    2
    11     1    40    1
    12     1     2    1
    13     2     3    1
    14     3     4   ar
    15     4     5   ar
    16     5     6   ar
    17     6     7   ar
    18     7     8   ar
    19     6     9    1
    20     9    10   am
    21    10    11    2
    22    10    12    1
    23    12    13    1
    24    13    14    1
    25    14    15    1
    26    15    16    2
    27    16    17    1
    28    17    18    1
    29    18    19    1
    30    19    20    1
    31    20    21    2
    32    20    22   am
    33    22    23    1
    34    23    24   ar
    35    24    25   ar
    36    25    26   ar
    37    26    27   ar
    38    27    28   ar
    39    26    29    1
    40    29    30    1
    41    30    56    1
    42    56    58    1
    43    58    59    2
    44    58    60    2
    45    58    61    1
    46    61    62    1
    47    62    63   ar
    48    63    64   ar
    49    64    65   ar
    50    65    66   ar
    51    66    67   ar
    52    30    31    1
    53    31    32    2
    54    31    33   am
    55    17    34    1
    56    34    35    2
    57    47    48   ar
    58    48    49   ar
    59    49    44   ar
    60    33     1    1
    61     8     3   ar
    62    35    14    1
    63    28    23   ar
    64    67    62   ar
    65    50    53    1
    66    52    54    1
    67    52    55    1
    68    39    42    1
    69     9    36    1
    70    22    37    1
    71    56    57    1
    72    33    38    1
@<TRIPOS>MOLECULE
*****
 67 72 0 0 0
SMALL
GASTEIGER

@<TRIPOS>ATOM
      1 C          63.2399   85.7395   11.8983 C.3     1  UNL1        0.1530
      2 C          62.7188   84.8071   10.8451 C.3     1  UNL1        0.0553
      3 C          62.2623   84.1554    9.5735 C.ar    1  UNL1       -0.0199
      4 C          61.7025   82.9353    8.9043 C.ar    1  UNL1       -0.0029
      5 C          61.4496   82.9403    7.4258 C.ar    1  UNL1        0.0143
      6 C          61.7566   84.1653    6.6165 C.ar    1  UNL1        0.0503
      7 C          62.3165   85.3854    7.2858 C.ar    1  UNL1        0.0143
      8 C          62.5693   85.3805    8.7643 C.ar    1  UNL1       -0.0029
      9 N          61.5272   84.8304    3.8771 N.am    1  UNL1       -0.2839
     10 C          61.6698   85.7703    2.7168 C.2     1  UNL1        0.2279
     11 O          61.1487   84.8379    1.6637 O.2     1  UNL1       -0.2747
     12 C          61.9381   86.9349    1.8104 C.3     1  UNL1        0.1071
     13 C          62.3164   88.2567    1.2105 C.3     1  UNL1        0.1053
     14 N          62.7828   89.6587    0.9520 N.pl3   1  UNL1       -0.2823
     15 C          63.3100   91.0595    1.0500 C.2     1  UNL1        0.0818
     16 C          63.8677   92.3778    1.4987 C.2     1  UNL1        0.0818
     17 N          64.4232   93.5369    2.2720 N.pl3   1  UNL1       -0.2823
     18 C          64.9443   94.4693    3.3251 C.3     1  UNL1        0.1053
     19 C          65.4008   95.1210    4.5968 C.3     1  UNL1        0.1071
     20 C          65.7660   95.4540    6.0129 C.2     1  UNL1        0.2279
     21 O          66.2324   96.8560    5.7545 O.2     1  UNL1       -0.2747
     22 N          66.0189   95.4491    7.4915 N.am    1  UNL1       -0.2839
     23 C          66.1446   95.1064    8.9464 C.ar    1  UNL1        0.0503
     24 C          66.1359   94.4459   10.2932 C.ar    1  UNL1        0.0143
     25 C          65.9933   93.5061   11.4535 C.ar    1  UNL1       -0.0029
     26 C          65.7250   92.3414   12.3599 C.ar    1  UNL1       -0.0202
     27 C          65.7337   93.0018   11.0132 C.ar    1  UNL1       -0.0029
     28 C          65.8763   93.9417    9.8529 C.ar    1  UNL1        0.0143
     29 C          65.3467   91.0197   12.9598 C.3     1  UNL1        0.0530
     30 C          64.8803   89.6176   13.2183 C.3     1  UNL1        0.1553
     31 C          64.3530   88.2167   13.1203 C.2     1  UNL1        0.2390
     32 O          64.4787   87.8741   14.5752 O.2     1  UNL1       -0.2736
     33 N          63.7954   86.8986   12.6716 N.am    1  UNL1       -0.2969
     34 C          63.8959   92.1360    2.1741 C.2     1  UNL1        0.0818
     35 C          63.3383   90.8177    1.7254 C.2     1  UNL1        0.0818
     36 H          61.1592   84.0131    3.4699 H       1  UNL1        0.1549
     37 H          66.3650   96.3685    7.5558 H       1  UNL1        0.1549
     38 H          63.7897   86.4651   13.5555 H       1  UNL1        0.1499
     39 N          63.6785   83.4190   12.9812 N.am    1  UNL1       -0.2991
     40 C          63.0973   84.7996   13.0586 C.2     1  UNL1        0.2409
     41 O          62.3734   85.2405   14.2961 O.2     1  UNL1       -0.2733
     42 H          64.1536   83.1297   12.1689 H       1  UNL1        0.1498
     43 C          63.5359   82.4791   14.1415 C.3     1  UNL1        0.1164
     44 C          59.7185   80.1641   14.7057 C.ar    1  UNL1        0.0813
     45 C          59.7000   81.6633   14.7504 C.ar    1  UNL1        0.0071
     46 C          60.9725   82.4349   14.5624 C.ar    1  UNL1       -0.0024
     47 C          62.2634   81.7075   14.3296 C.ar    1  UNL1       -0.0026
     48 C          62.2819   80.2082   14.2849 C.ar    1  UNL1       -0.0024
     49 C          61.0094   79.4365   14.4729 C.ar    1  UNL1        0.0071
     50 N          57.4016   79.8893   15.8488 N.2     1  UNL1       -0.0994
     51 C          58.4461   79.3924   14.8938 C.2     1  UNL1        0.3093
     52 N          58.2182   78.1236   14.1267 N.pl3   1  UNL1       -0.2466
     53 H          56.5665   79.3828   15.9722 H       1  UNL1        0.3633
     54 H          57.3831   77.6170   14.2501 H       1  UNL1        0.2884
     55 H          58.9037   77.7975   13.4999 H       1  UNL1        0.2884
     56 N          65.1331   89.6126   14.6968 N.3     1  UNL1       -0.1753
     57 H          65.5926   90.4955   14.9199 H       1  UNL1        0.1489
     58 S          63.9868   89.4672   15.6532 S.O2    1  UNL1        0.0454
     59 O          63.6272   90.9079   15.4413 O.2     1  UNL1       -0.1572
     60 O          64.3464   88.0264   15.8652 O.2     1  UNL1       -0.1572
     61 C          62.8405   89.3217   16.6096 C.3     1  UNL1        0.1952
     62 C          62.7499   88.1133   17.4937 C.ar    1  UNL1        0.0029
     63 C          62.8605   88.2629   18.9820 C.ar    1  UNL1       -0.0025
     64 C          62.7700   87.0545   19.8661 C.ar    1  UNL1       -0.0003
     65 C          62.5688   85.6965   19.2617 C.ar    1  UNL1       -0.0000
     66 C          62.4582   85.5468   17.7732 C.ar    1  UNL1       -0.0003
     67 C          62.5488   86.7553   16.8892 C.ar    1  UNL1       -0.0025
@<TRIPOS>BOND
     1    50    51    2
     2    51    52    1
     3    51    44    1
     4    44    45   ar
     5    45    46   ar
     6    46    47   ar
     7    47    43    1
     8    43    39    1
     9    39    40   am
    10    40    41    2
    11     1    40    1
    12     1     2    1
    13     2     3    1
    14     3     4   ar
    15     4     5   ar
    16     5     6   ar
    17     6     7   ar
    18     7     8   ar
    19     6     9    1
    20     9    10   am
    21    10    11    2
    22    10    12    1
    23    12    13    1
    24    13    14    1
    25    14    15    1
    26    15    16    2
    27    16    17    1
    28    17    18    1
    29    18    19    1
    30    19    20    1
    31    20    21    2
    32    20    22   am
    33    22    23    1
    34    23    24   ar
    35    24    25   ar
    36    25    26   ar
    37    26    27   ar
    38    27    28   ar
    39    26    29    1
    40    29    30    1
    41    30    56    1
    42    56    58    1
    43    58    59    2
    44    58    60    2
    45    58    61    1
    46    61    62    1
    47    62    63   ar
    48    63    64   ar
    49    64    65   ar
    50    65    66   ar
    51    66    67   ar
    52    30    31    1
    53    31    32    2
    54    31    33   am
    55    17    34    1
    56    34    35    2
    57    47    48   ar
    58    48    49   ar
    59    49    44   ar
    60    33     1    1
    61     8     3   ar
    62    35    14    1
    63    28    23   ar
    64    67    62   ar
    65    50    53    1
    66    52    54    1
    67    52    55    1
    68    39    42    1
    69     9    36    1
    70    22    37    1
    71    56    57    1
    72    33    38    1
