@<TRIPOS>MOLECULE
*****
 36 40 0 0 0
SMALL
GASTEIGER

@<TRIPOS>ATOM
      1 N          65.5688   92.2818   11.3035 N.am    1  UNL1       -0.2681
      2 C          65.4524   92.4392   12.7908 C.2     1  UNL1        0.3078
      3 O          65.8286   93.7385   13.4391 O.2     1  UNL1       -0.2522
      4 N          64.9598   91.2974   13.6295 N.am    1  UNL1       -0.2605
      5 C          64.8434   91.4548   15.1167 C.3     1  UNL1        0.1164
      6 C          64.3509   90.3131   15.9555 C.3     1  UNL1        0.1138
      7 N          63.9747   89.0137   15.3071 N.pl3   1  UNL1       -0.2884
      8 C          64.0911   88.8563   13.8200 C.3     1  UNL1        0.1138
      9 C          64.5837   89.9982   12.9812 C.3     1  UNL1        0.1164
     10 H          65.3219   91.4290   10.8780 H       1  UNL1        0.1564
     11 C          63.4821   87.8719   16.1460 C.ar    1  UNL1        0.1544
     12 N          63.1577   88.0904   17.5941 N.ar    1  UNL1       -0.1974
     13 C          62.6652   86.9487   18.4329 C.ar    1  UNL1        0.2154
     14 N          62.3408   87.1672   19.8811 N.pl3   1  UNL1       -0.3274
     15 N          62.4969   85.5883   17.8236 N.ar    1  UNL1       -0.2057
     16 C          62.8213   85.3698   16.3755 C.ar    1  UNL1        0.1353
     17 S          62.7548   84.1500   15.5051 S.2     1  UNL1       -0.0473
     18 C          63.2063   84.5379   14.1283 C.ar    1  UNL1        0.1122
     19 N          63.5518   85.9975   14.1478 N.ar    1  UNL1       -0.2339
     20 C          63.3139   86.5116   15.5367 C.ar    1  UNL1        0.1372
     21 H          62.4512   88.0600   20.2810 H       1  UNL1        0.1452
     22 H          62.0175   86.4178   20.4316 H       1  UNL1        0.1452
     23 C          63.2964   83.6264   12.9404 C.ar    1  UNL1        0.0239
     24 C          63.9502   84.1029   11.6773 C.ar    1  UNL1        0.0020
     25 C          64.0404   83.1912   10.4895 C.ar    1  UNL1        0.0001
     26 C          63.4767   81.8032   10.5647 C.ar    1  UNL1        0.0000
     27 C          62.8228   81.3268   11.8279 C.ar    1  UNL1        0.0001
     28 C          62.7327   82.2384   13.0157 C.ar    1  UNL1        0.0020
     29 C          67.0466   95.7072    8.7871 C.ar    1  UNL1        0.1388
     30 C          65.8455   95.8869    9.6676 C.ar    1  UNL1        0.0382
     31 C          65.3529   94.7451   10.5064 C.ar    1  UNL1        0.0178
     32 C          66.0614   93.4235   10.4648 C.ar    1  UNL1        0.0518
     33 C          67.2625   93.2439    9.5842 C.ar    1  UNL1        0.0178
     34 C          67.7550   94.3857    8.7454 C.ar    1  UNL1        0.0382
     35 C          67.2965   96.8516    6.4681 C.3     1  UNL1        0.2525
     36 O          67.5391   96.8491    7.9483 O.3     1  UNL1       -0.4714
@<TRIPOS>BOND
     1    35    36    1
     2    36    29    1
     3    29    30   ar
     4    30    31   ar
     5    31    32   ar
     6    32     1    1
     7     1     2   am
     8     2     3    2
     9     2     4   am
    10     4     5    1
    11     5     6    1
    12     6     7    1
    13     7    11    1
    14    11    12   ar
    15    12    13   ar
    16    13    14    1
    17    13    15   ar
    18    15    16   ar
    19    16    17   ar
    20    17    18   ar
    21    18    23    1
    22    23    24   ar
    23    24    25   ar
    24    25    26   ar
    25    26    27   ar
    26    27    28   ar
    27    18    19   ar
    28    19    20   ar
    29     7     8    1
    30     8     9    1
    31    32    33   ar
    32    33    34   ar
    33    34    29   ar
    34     9     4    1
    35    20    11   ar
    36    20    16   ar
    37    28    23   ar
    38     1    10    1
    39    14    21    1
    40    14    22    1
@<TRIPOS>MOLECULE
*****
 36 40 0 0 0
SMALL
GASTEIGER

@<TRIPOS>ATOM
      1 N          63.6855   83.9455   13.3861 N.am    1  UNL1       -0.2681
      2 C          63.2422   85.1606   12.6265 C.2     1  UNL1        0.3078
      3 O          62.4379   85.0073   11.3697 O.2     1  UNL1       -0.2522
      4 N          63.6032   86.5290   13.1236 N.am    1  UNL1       -0.2605
      5 C          63.1598   87.7441   12.3640 C.3     1  UNL1        0.1164
      6 C          63.5208   89.1124   12.8611 C.3     1  UNL1        0.1138
      7 N          64.3252   89.2658   14.1179 N.pl3   1  UNL1       -0.2884
      8 C          64.7685   88.0507   14.8776 C.3     1  UNL1        0.1138
      9 C          64.4075   86.6823   14.3804 C.3     1  UNL1        0.1164
     10 H          64.2135   84.0461   14.2110 H       1  UNL1        0.1564
     11 C          64.6862   90.6342   14.6151 C.ar    1  UNL1        0.1544
     12 N          64.3313   91.0416   16.0144 N.ar    1  UNL1       -0.1974
     13 C          64.6923   92.4099   16.5115 C.ar    1  UNL1        0.2154
     14 N          64.3374   92.8173   17.9110 N.pl3   1  UNL1       -0.3274
     15 N          65.4081   93.3711   15.6093 N.ar    1  UNL1       -0.2057
     16 C          65.7629   92.9637   14.2100 C.ar    1  UNL1        0.1353
     17 S          66.4623   93.6906   13.0999 S.2     1  UNL1       -0.0473
     18 C          66.5336   92.7715   11.9167 C.ar    1  UNL1        0.1122
     19 N          65.8783   91.4765   12.2955 N.ar    1  UNL1       -0.2339
     20 C          65.4020   91.5953   13.7129 C.ar    1  UNL1        0.1372
     21 H          63.8676   92.1865   18.5031 H       1  UNL1        0.1452
     22 H          64.5744   93.7154   18.2372 H       1  UNL1        0.1452
     23 C          67.1518   93.0912   10.5879 C.ar    1  UNL1        0.0239
     24 C          68.0971   92.1187    9.9470 C.ar    1  UNL1        0.0020
     25 C          68.7152   92.4385    8.6182 C.ar    1  UNL1        0.0001
     26 C          68.3880   93.7306    7.9302 C.ar    1  UNL1        0.0000
     27 C          67.4426   94.7030    8.5710 C.ar    1  UNL1        0.0001
     28 C          66.8245   94.3833    9.8999 C.ar    1  UNL1        0.0020
     29 C          62.6026   79.8403   11.8947 C.ar    1  UNL1        0.1388
     30 C          63.2154   80.8405   10.9598 C.ar    1  UNL1        0.0382
     31 C          63.5764   82.2088   11.4568 C.ar    1  UNL1        0.0178
     32 C          63.3246   82.5772   12.8890 C.ar    1  UNL1        0.0518
     33 C          62.7117   81.5770   13.8240 C.ar    1  UNL1        0.0178
     34 C          62.3507   80.2086   13.3268 C.ar    1  UNL1        0.0382
     35 C          62.8584   77.9455   10.1356 C.3     1  UNL1        0.2525
     36 O          62.2416   78.4719   11.3975 O.3     1  UNL1       -0.4714
@<TRIPOS>BOND
     1    35    36    1
     2    36    29    1
     3    29    30   ar
     4    30    31   ar
     5    31    32   ar
     6    32     1    1
     7     1     2   am
     8     2     3    2
     9     2     4   am
    10     4     5    1
    11     5     6    1
    12     6     7    1
    13     7    11    1
    14    11    12   ar
    15    12    13   ar
    16    13    14    1
    17    13    15   ar
    18    15    16   ar
    19    16    17   ar
    20    17    18   ar
    21    18    23    1
    22    23    24   ar
    23    24    25   ar
    24    25    26   ar
    25    26    27   ar
    26    27    28   ar
    27    18    19   ar
    28    19    20   ar
    29     7     8    1
    30     8     9    1
    31    32    33   ar
    32    33    34   ar
    33    34    29   ar
    34     9     4    1
    35    20    11   ar
    36    20    16   ar
    37    28    23   ar
    38     1    10    1
    39    14    21    1
    40    14    22    1
