@<TRIPOS>MOLECULE
*****
 33 38 0 0 0
SMALL
GASTEIGER

@<TRIPOS>ATOM
      1 C          62.9490   90.8744   11.6825 C.3     1  UNL1        0.0749
      2 C          64.1054   91.8282   11.7379 C.3     1  UNL1        0.0444
      3 C          64.8921   91.9802   13.0059 C.ar    1  UNL1       -0.0101
      4 C          64.5225   91.1784   14.2186 C.ar    1  UNL1       -0.0091
      5 C          65.3093   91.3304   15.4866 C.ar    1  UNL1       -0.0032
      6 C          66.4656   92.2842   15.5420 C.ar    1  UNL1        0.0010
      7 C          66.8352   93.0860   14.3294 C.ar    1  UNL1        0.0142
      8 C          66.0485   92.9340   13.0614 C.ar    1  UNL1        0.0436
      9 C          63.3661   90.2245   14.1632 C.3     1  UNL1        0.0954
     10 N          62.5794   90.0725   12.8951 N.3     1  UNL1       -0.2934
     11 H          61.6121   90.3062   13.1190 H       1  UNL1        0.1236
     12 N          66.4181   93.7358   11.8487 N.pl3   1  UNL1       -0.3076
     13 C          66.2673   95.2202   11.6936 C.3     1  UNL1        0.0922
     14 C          66.7594   95.5958   10.3273 C.3     1  UNL1        0.0385
     15 C          66.9704   96.7453    9.3871 C.3     1  UNL1        0.0703
     16 N          67.5556   96.2036    8.1166 N.3     1  UNL1       -0.2974
     17 C          67.7064   94.7193    8.2718 C.3     1  UNL1        0.0703
     18 C          67.2143   94.3437    9.6380 C.3     1  UNL1        0.0385
     19 C          67.0033   93.1942   10.5783 C.3     1  UNL1        0.0922
     20 H          68.4673   96.6282    7.9469 H       1  UNL1        0.1232
     21 C          62.1623   90.7223   10.4144 C.3     1  UNL1        0.0886
     22 C          59.6876   90.5722   11.1913 C.3     1  UNL1        0.0899
     23 N          60.8470   90.0014   10.4297 N.3     1  UNL1       -0.2667
     24 C          60.6911   88.7095    9.6835 C.3     1  UNL1        0.0978
     25 C          59.8939   88.6684    8.4136 C.3     1  UNL1        0.0224
     26 C          59.7380   87.3765    7.6674 C.3     1  UNL1        0.0065
     27 C          60.3794   86.1258    8.1911 C.3     1  UNL1        0.0277
     28 C          61.1766   86.1669    9.4611 C.ar    1  UNL1       -0.0073
     29 C          61.8179   84.9161    9.9848 C.ar    1  UNL1       -0.0015
     30 C          62.6151   84.9572   11.2547 C.ar    1  UNL1        0.0203
     31 C          62.7710   86.2491   12.0009 C.ar    1  UNL1        0.0985
     32 N          62.1297   87.4998   11.4772 N.ar    1  UNL1       -0.2471
     33 C          61.3325   87.4587   10.2073 C.ar    1  UNL1        0.0695
@<TRIPOS>BOND
     1    22    23    1
     2    23    21    1
     3     1    21    1
     4     1     2    1
     5     2     3    1
     6     3     4   ar
     7     4     5   ar
     8     5     6   ar
     9     6     7   ar
    10     7     8   ar
    11     8    12    1
    12    12    13    1
    13    14    13    1
    14    14    15    1
    15    15    16    1
    16    16    17    1
    17    18    17    1
    18    18    19    1
    19     4     9    1
    20     9    10    1
    21    24    23    1
    22    24    25    1
    23    25    26    1
    24    26    27    1
    25    27    28    1
    26    28    29   ar
    27    29    30   ar
    28    30    31   ar
    29    31    32   ar
    30    32    33   ar
    31    10     1    1
    32    33    24    1
    33     8     3   ar
    34    19    12    1
    35    33    28   ar
    36    18    14    1
    37    16    20    1
    38    10    11    1
@<TRIPOS>MOLECULE
*****
 33 38 0 0 0
SMALL
GASTEIGER

@<TRIPOS>ATOM
      1 C          63.1952   90.8669   12.4116 C.3     1  UNL1        0.0749
      2 C          64.2960   91.8759   12.2698 C.3     1  UNL1        0.0444
      3 C          65.2028   92.1645   13.4293 C.ar    1  UNL1       -0.0101
      4 C          65.0087   91.4442   14.7306 C.ar    1  UNL1       -0.0091
      5 C          65.9155   91.7329   15.8901 C.ar    1  UNL1       -0.0032
      6 C          67.0163   92.7418   15.7483 C.ar    1  UNL1        0.0010
      7 C          67.2104   93.4622   14.4470 C.ar    1  UNL1        0.0142
      8 C          66.3037   93.1735   13.2875 C.ar    1  UNL1        0.0436
      9 C          63.9079   90.4352   14.8724 C.3     1  UNL1        0.0954
     10 N          63.0012   90.1466   13.7130 N.3     1  UNL1       -0.2934
     11 H          62.0514   90.3510   14.0239 H       1  UNL1        0.1236
     12 N          66.4977   93.8938   11.9861 N.pl3   1  UNL1       -0.3076
     13 C          66.1744   95.3339   11.7187 C.3     1  UNL1        0.0922
     14 C          66.5260   95.6307   10.2910 C.3     1  UNL1        0.0385
     15 C          66.5435   96.7040    9.2435 C.3     1  UNL1        0.0703
     16 N          67.0951   96.1107    7.9811 N.3     1  UNL1       -0.2974
     17 C          67.4184   94.6706    8.2485 C.3     1  UNL1        0.0703
     18 C          67.0668   94.3739    9.6761 C.3     1  UNL1        0.0385
     19 C          67.0493   93.3005   10.7237 C.3     1  UNL1        0.0922
     20 H          67.9406   96.6098    7.7046 H       1  UNL1        0.1232
     21 C          62.2884   90.5782   11.2521 C.3     1  UNL1        0.0886
     22 C          59.9008   89.9079   12.0266 C.3     1  UNL1        0.0899
     23 N          61.2073   89.5469   11.3841 N.3     1  UNL1       -0.2667
     24 C          61.4326   88.1545   10.8736 C.3     1  UNL1        0.0978
     25 C          62.3274   87.2153   11.6267 C.3     1  UNL1        0.0224
     26 C          62.5527   85.8229   11.1162 C.3     1  UNL1        0.0065
     27 C          61.8833   85.3698    9.8527 C.3     1  UNL1        0.0277
     28 C          60.9885   86.3091    9.0996 C.ar    1  UNL1       -0.0073
     29 C          60.3191   85.8560    7.8361 C.ar    1  UNL1       -0.0015
     30 C          59.4243   86.7953    7.0830 C.ar    1  UNL1        0.0203
     31 C          59.1990   88.1876    7.5935 C.ar    1  UNL1        0.0985
     32 N          59.8684   88.6407    8.8570 N.ar    1  UNL1       -0.2471
     33 C          60.7632   87.7014    9.6100 C.ar    1  UNL1        0.0695
@<TRIPOS>BOND
     1    22    23    1
     2    23    21    1
     3     1    21    1
     4     1     2    1
     5     2     3    1
     6     3     4   ar
     7     4     5   ar
     8     5     6   ar
     9     6     7   ar
    10     7     8   ar
    11     8    12    1
    12    12    13    1
    13    14    13    1
    14    14    15    1
    15    15    16    1
    16    16    17    1
    17    18    17    1
    18    18    19    1
    19     4     9    1
    20     9    10    1
    21    24    23    1
    22    24    25    1
    23    25    26    1
    24    26    27    1
    25    27    28    1
    26    28    29   ar
    27    29    30   ar
    28    30    31   ar
    29    31    32   ar
    30    32    33   ar
    31    10     1    1
    32    33    24    1
    33     8     3   ar
    34    19    12    1
    35    33    28   ar
    36    18    14    1
    37    16    20    1
    38    10    11    1
@<TRIPOS>MOLECULE
*****
 33 38 0 0 0
SMALL
GASTEIGER

@<TRIPOS>ATOM
      1 C          62.5481   90.0353   10.7879 C.3     1  UNL1        0.0749
      2 C          63.1009   89.8032   12.1628 C.3     1  UNL1        0.0444
      3 C          64.1560   90.7175   12.7111 C.ar    1  UNL1       -0.0101
      4 C          64.6583   91.8640   11.8844 C.ar    1  UNL1       -0.0091
      5 C          65.7134   92.7784   12.4328 C.ar    1  UNL1       -0.0032
      6 C          66.2662   92.5463   13.8077 C.ar    1  UNL1        0.0010
      7 C          65.7640   91.3999   14.6344 C.ar    1  UNL1        0.0142
      8 C          64.7089   90.4855   14.0861 C.ar    1  UNL1        0.0436
      9 C          64.1054   92.0961   10.5095 C.3     1  UNL1        0.0954
     10 N          63.0503   91.1817    9.9612 N.3     1  UNL1       -0.2934
     11 H          63.4250   90.7824    9.1007 H       1  UNL1        0.1236
     12 N          64.2067   89.3390   14.9127 N.pl3   1  UNL1       -0.3076
     13 C          63.3518   89.4453   16.1407 C.3     1  UNL1        0.0922
     14 C          63.0879   88.0569   16.6434 C.3     1  UNL1        0.0385
     15 C          62.3965   87.2646   17.7130 C.3     1  UNL1        0.0703
     16 N          62.6609   85.8105   17.4569 N.3     1  UNL1       -0.2974
     17 C          63.5158   85.7042   16.2289 C.3     1  UNL1        0.0703
     18 C          63.7796   87.0925   15.7262 C.3     1  UNL1        0.0385
     19 C          64.4711   87.8849   14.6566 C.3     1  UNL1        0.0922
     20 H          61.7794   85.3193   17.3085 H       1  UNL1        0.1232
     21 C          61.4929   89.1209   10.2395 C.3     1  UNL1        0.0886
     22 C          60.4061   87.5575   12.0073 C.3     1  UNL1        0.0899
     23 N          61.3086   87.7522   10.8250 N.3     1  UNL1       -0.2667
     24 C          62.0266   86.5782   10.2282 C.3     1  UNL1        0.0978
     25 C          62.2849   86.5286    8.7514 C.3     1  UNL1        0.0224
     26 C          63.0029   85.3546    8.1547 C.3     1  UNL1        0.0065
     27 C          63.4626   84.2302    9.0346 C.3     1  UNL1        0.0277
     28 C          63.2043   84.2797   10.5114 C.ar    1  UNL1       -0.0073
     29 C          63.6639   83.1553   11.3913 C.ar    1  UNL1       -0.0015
     30 C          63.4056   83.2049   12.8680 C.ar    1  UNL1        0.0203
     31 C          62.6876   84.3789   13.4648 C.ar    1  UNL1        0.0985
     32 N          62.2279   85.5033   12.5849 N.ar    1  UNL1       -0.2471
     33 C          62.4863   85.4537   11.1082 C.ar    1  UNL1        0.0695
@<TRIPOS>BOND
     1    22    23    1
     2    23    21    1
     3     1    21    1
     4     1     2    1
     5     2     3    1
     6     3     4   ar
     7     4     5   ar
     8     5     6   ar
     9     6     7   ar
    10     7     8   ar
    11     8    12    1
    12    12    13    1
    13    14    13    1
    14    14    15    1
    15    15    16    1
    16    16    17    1
    17    18    17    1
    18    18    19    1
    19     4     9    1
    20     9    10    1
    21    24    23    1
    22    24    25    1
    23    25    26    1
    24    26    27    1
    25    27    28    1
    26    28    29   ar
    27    29    30   ar
    28    30    31   ar
    29    31    32   ar
    30    32    33   ar
    31    10     1    1
    32    33    24    1
    33     8     3   ar
    34    19    12    1
    35    33    28   ar
    36    18    14    1
    37    16    20    1
    38    10    11    1
@<TRIPOS>MOLECULE
*****
 33 38 0 0 0
SMALL
GASTEIGER

@<TRIPOS>ATOM
      1 C          61.3953   89.5903   11.8472 C.3     1  UNL1        0.0749
      2 C          61.6175   88.2430   11.2264 C.3     1  UNL1        0.0444
      3 C          60.9593   87.9003    9.9228 C.ar    1  UNL1       -0.0101
      4 C          60.0790   88.9047    9.2401 C.ar    1  UNL1       -0.0091
      5 C          59.4209   88.5619    7.9365 C.ar    1  UNL1       -0.0032
      6 C          59.6431   87.2146    7.3156 C.ar    1  UNL1        0.0010
      7 C          60.5234   86.2101    7.9983 C.ar    1  UNL1        0.0142
      8 C          61.1815   86.5529    9.3019 C.ar    1  UNL1        0.0436
      9 C          59.8568   90.2520    9.8609 C.3     1  UNL1        0.0954
     10 N          60.5150   90.5948   11.1645 N.3     1  UNL1       -0.2934
     11 H          59.7681   90.8253   11.8198 H       1  UNL1        0.1236
     12 N          62.0618   85.5485    9.9846 N.pl3   1  UNL1       -0.3076
     13 C          63.0912   84.6827    9.3207 C.3     1  UNL1        0.0922
     14 C          63.7329   83.8326   10.3769 C.3     1  UNL1        0.0385
     15 C          64.7656   82.7721   10.6193 C.3     1  UNL1        0.0703
     16 N          64.7711   82.4571   12.0858 N.3     1  UNL1       -0.2974
     17 C          63.7418   83.3229   12.7497 C.3     1  UNL1        0.0703
     18 C          63.1001   84.1729   11.6936 C.3     1  UNL1        0.0385
     19 C          62.0674   85.2334   11.4511 C.3     1  UNL1        0.0922
     20 H          65.6923   82.6517   12.4782 H       1  UNL1        0.1232
     21 C          62.0534   89.9332   13.1509 C.3     1  UNL1        0.0886
     22 C          64.2430   88.7625   13.9160 C.3     1  UNL1        0.0899
     23 N          63.5492   89.9206   13.2620 N.3     1  UNL1       -0.2667
     24 C          64.3513   91.0660   12.7192 C.3     1  UNL1        0.0978
     25 C          64.2510   91.4306   11.2677 C.3     1  UNL1        0.0224
     26 C          65.0531   92.5760   10.7249 C.3     1  UNL1        0.0065
     27 C          65.9554   93.3569   11.6337 C.3     1  UNL1        0.0277
     28 C          66.0557   92.9924   13.0853 C.ar    1  UNL1       -0.0073
     29 C          66.9581   93.7734   13.9941 C.ar    1  UNL1       -0.0015
     30 C          67.0583   93.4088   15.4456 C.ar    1  UNL1        0.0203
     31 C          66.2562   92.2634   15.9884 C.ar    1  UNL1        0.0985
     32 N          65.3539   91.4824   15.0796 N.ar    1  UNL1       -0.2471
     33 C          65.2537   91.8470   13.6281 C.ar    1  UNL1        0.0695
@<TRIPOS>BOND
     1    22    23    1
     2    23    21    1
     3     1    21    1
     4     1     2    1
     5     2     3    1
     6     3     4   ar
     7     4     5   ar
     8     5     6   ar
     9     6     7   ar
    10     7     8   ar
    11     8    12    1
    12    12    13    1
    13    14    13    1
    14    14    15    1
    15    15    16    1
    16    16    17    1
    17    18    17    1
    18    18    19    1
    19     4     9    1
    20     9    10    1
    21    24    23    1
    22    24    25    1
    23    25    26    1
    24    26    27    1
    25    27    28    1
    26    28    29   ar
    27    29    30   ar
    28    30    31   ar
    29    31    32   ar
    30    32    33   ar
    31    10     1    1
    32    33    24    1
    33     8     3   ar
    34    19    12    1
    35    33    28   ar
    36    18    14    1
    37    16    20    1
    38    10    11    1
@<TRIPOS>MOLECULE
*****
 33 38 0 0 0
SMALL
GASTEIGER

@<TRIPOS>ATOM
      1 C          61.5517   89.6531   12.1177 C.3     1  UNL1        0.0749
      2 C          61.7436   88.2998   11.4999 C.3     1  UNL1        0.0444
      3 C          61.1105   87.9824   10.1777 C.ar    1  UNL1       -0.0101
      4 C          60.2854   89.0183    9.4732 C.ar    1  UNL1       -0.0091
      5 C          59.6523   88.7009    8.1509 C.ar    1  UNL1       -0.0032
      6 C          59.8442   87.3476    7.5331 C.ar    1  UNL1        0.0010
      7 C          60.6692   86.3117    8.2375 C.ar    1  UNL1        0.0142
      8 C          61.3023   86.6291    9.5598 C.ar    1  UNL1        0.0436
      9 C          60.0935   90.3716   10.0910 C.3     1  UNL1        0.0954
     10 N          60.7267   90.6890   11.4133 N.3     1  UNL1       -0.2934
     11 H          59.9703   90.9447   12.0481 H       1  UNL1        0.1236
     12 N          62.1273   85.5932   10.2642 N.pl3   1  UNL1       -0.3076
     13 C          62.1434   85.3339   11.7415 C.3     1  UNL1        0.0922
     14 C          63.1072   84.2151   12.0054 C.3     1  UNL1        0.0385
     15 C          63.7127   83.3635   13.0814 C.3     1  UNL1        0.0703
     16 N          64.6665   82.4050   12.4322 N.3     1  UNL1       -0.2974
     17 C          64.6504   82.6643   10.9549 C.3     1  UNL1        0.0703
     18 C          63.6867   83.7830   10.6911 C.3     1  UNL1        0.0385
     19 C          63.0812   84.6347    9.6150 C.3     1  UNL1        0.0922
     20 H          64.3738   81.4458   12.6185 H       1  UNL1        0.1232
     21 C          62.1848   89.9705   13.4400 C.3     1  UNL1        0.0886
     22 C          64.1906   88.3263   13.5939 C.3     1  UNL1        0.0899
     23 N          63.6497   89.7244   13.6485 N.3     1  UNL1       -0.2667
     24 C          64.5738   90.8763   13.9116 C.3     1  UNL1        0.0978
     25 C          65.1171   91.1019   15.2914 C.3     1  UNL1        0.0224
     26 C          66.0412   92.2538   15.5545 C.3     1  UNL1        0.0065
     27 C          66.4219   93.1801   14.4379 C.3     1  UNL1        0.0277
     28 C          65.8786   92.9545   13.0580 C.ar    1  UNL1       -0.0073
     29 C          66.2593   93.8808   11.9413 C.ar    1  UNL1       -0.0015
     30 C          65.7160   93.6552   10.5616 C.ar    1  UNL1        0.0203
     31 C          64.7920   92.5033   10.2984 C.ar    1  UNL1        0.0985
     32 N          64.4112   91.5770   11.4151 N.ar    1  UNL1       -0.2471
     33 C          64.9545   91.8026   12.7949 C.ar    1  UNL1        0.0695
@<TRIPOS>BOND
     1    22    23    1
     2    23    21    1
     3     1    21    1
     4     1     2    1
     5     2     3    1
     6     3     4   ar
     7     4     5   ar
     8     5     6   ar
     9     6     7   ar
    10     7     8   ar
    11     8    12    1
    12    12    13    1
    13    14    13    1
    14    14    15    1
    15    15    16    1
    16    16    17    1
    17    18    17    1
    18    18    19    1
    19     4     9    1
    20     9    10    1
    21    24    23    1
    22    24    25    1
    23    25    26    1
    24    26    27    1
    25    27    28    1
    26    28    29   ar
    27    29    30   ar
    28    30    31   ar
    29    31    32   ar
    30    32    33   ar
    31    10     1    1
    32    33    24    1
    33     8     3   ar
    34    19    12    1
    35    33    28   ar
    36    18    14    1
    37    16    20    1
    38    10    11    1
@<TRIPOS>MOLECULE
*****
 33 38 0 0 0
SMALL
GASTEIGER

@<TRIPOS>ATOM
      1 C          64.4343   86.6859   14.4958 C.3     1  UNL1        0.0749
      2 C          63.5777   86.3010   13.3262 C.3     1  UNL1        0.0444
      3 C          63.3836   84.8539   12.9828 C.ar    1  UNL1       -0.0101
      4 C          64.0461   83.7916   13.8090 C.ar    1  UNL1       -0.0091
      5 C          63.8520   82.3443   13.4655 C.ar    1  UNL1       -0.0032
      6 C          62.9954   81.9595   12.2959 C.ar    1  UNL1        0.0010
      7 C          62.3329   83.0218   11.4696 C.ar    1  UNL1        0.0142
      8 C          62.5270   84.4689   11.8131 C.ar    1  UNL1        0.0436
      9 C          64.9027   84.1765   14.9786 C.3     1  UNL1        0.0954
     10 N          65.0968   85.6236   15.3221 N.3     1  UNL1       -0.2934
     11 H          66.1000   85.8034   15.2834 H       1  UNL1        0.1236
     12 N          61.8646   85.5312   10.9868 N.pl3   1  UNL1       -0.3076
     13 C          61.8205   85.5833    9.4884 C.3     1  UNL1        0.0922
     14 C          61.0586   86.8122    9.0894 C.3     1  UNL1        0.0385
     15 C          60.5605   87.6039    7.9168 C.3     1  UNL1        0.0703
     16 N          59.8257   88.8006    8.4439 N.3     1  UNL1       -0.2974
     17 C          59.8698   88.7486    9.9424 C.3     1  UNL1        0.0703
     18 C          60.6317   87.5197   10.3413 C.3     1  UNL1        0.0385
     19 C          61.1298   86.7280   11.5139 C.3     1  UNL1        0.0922
     20 H          58.8570   88.7802    8.1252 H       1  UNL1        0.1232
     21 C          64.6284   88.1332   14.8393 C.3     1  UNL1        0.0886
     22 C          62.3606   89.2937   15.3492 C.3     1  UNL1        0.0899
     23 N          63.5734   89.1372   14.4805 N.3     1  UNL1       -0.2667
     24 C          63.7311   89.9848   13.2530 C.3     1  UNL1        0.0978
     25 C          62.9770   89.6416   12.0026 C.3     1  UNL1        0.0224
     26 C          63.1348   90.4892   10.7752 C.3     1  UNL1        0.0065
     27 C          64.0466   91.6800   10.7981 C.3     1  UNL1        0.0277
     28 C          64.8008   92.0232   12.0485 C.ar    1  UNL1       -0.0073
     29 C          65.7126   93.2140   12.0714 C.ar    1  UNL1       -0.0015
     30 C          66.4667   93.5572   13.3218 C.ar    1  UNL1        0.0203
     31 C          66.3090   92.7096   14.5493 C.ar    1  UNL1        0.0985
     32 N          65.3971   91.5188   14.5264 N.ar    1  UNL1       -0.2471
     33 C          64.6430   91.1756   13.2760 C.ar    1  UNL1        0.0695
@<TRIPOS>BOND
     1    22    23    1
     2    23    21    1
     3     1    21    1
     4     1     2    1
     5     2     3    1
     6     3     4   ar
     7     4     5   ar
     8     5     6   ar
     9     6     7   ar
    10     7     8   ar
    11     8    12    1
    12    12    13    1
    13    14    13    1
    14    14    15    1
    15    15    16    1
    16    16    17    1
    17    18    17    1
    18    18    19    1
    19     4     9    1
    20     9    10    1
    21    24    23    1
    22    24    25    1
    23    25    26    1
    24    26    27    1
    25    27    28    1
    26    28    29   ar
    27    29    30   ar
    28    30    31   ar
    29    31    32   ar
    30    32    33   ar
    31    10     1    1
    32    33    24    1
    33     8     3   ar
    34    19    12    1
    35    33    28   ar
    36    18    14    1
    37    16    20    1
    38    10    11    1
@<TRIPOS>MOLECULE
*****
 33 38 0 0 0
SMALL
GASTEIGER

@<TRIPOS>ATOM
      1 C          62.5645   90.2529   10.9065 C.3     1  UNL1        0.0749
      2 C          63.1362   89.9416   12.2579 C.3     1  UNL1        0.0444
      3 C          64.2557   90.7743   12.8086 C.ar    1  UNL1       -0.0101
      4 C          64.8034   91.9184   12.0079 C.ar    1  UNL1       -0.0091
      5 C          65.9229   92.7512   12.5587 C.ar    1  UNL1       -0.0032
      6 C          66.4946   92.4399   13.9100 C.ar    1  UNL1        0.0010
      7 C          65.9469   91.2958   14.7107 C.ar    1  UNL1        0.0142
      8 C          64.8274   90.4630   14.1600 C.ar    1  UNL1        0.0436
      9 C          64.2317   92.2297   10.6566 C.3     1  UNL1        0.0954
     10 N          63.1123   91.3970   10.1059 N.3     1  UNL1       -0.2934
     11 H          63.4421   91.0072    9.2229 H       1  UNL1        0.1236
     12 N          64.2797   89.3189   14.9606 N.pl3   1  UNL1       -0.3076
     13 C          63.3967   89.4307   16.1681 C.3     1  UNL1        0.0922
     14 C          63.0900   88.0430   16.6481 C.3     1  UNL1        0.0385
     15 C          62.3549   87.2545   17.6910 C.3     1  UNL1        0.0703
     16 N          62.5939   85.7978   17.4248 N.3     1  UNL1       -0.2974
     17 C          63.4769   85.6861   16.2174 C.3     1  UNL1        0.0703
     18 C          63.7835   87.0737   15.7374 C.3     1  UNL1        0.0385
     19 C          64.5187   87.8622   14.6945 C.3     1  UNL1        0.0922
     20 H          61.7059   85.3278   17.2489 H       1  UNL1        0.1232
     21 C          61.4450   89.4201   10.3558 C.3     1  UNL1        0.0886
     22 C          59.7040   88.2561   11.8933 C.3     1  UNL1        0.0899
     23 N          60.9768   88.2056   11.1012 N.3     1  UNL1       -0.2667
     24 C          61.7814   86.9405   11.0545 C.3     1  UNL1        0.0978
     25 C          62.4413   86.4251   12.2990 C.3     1  UNL1        0.0224
     26 C          63.2459   85.1600   12.2523 C.3     1  UNL1        0.0065
     27 C          63.3905   84.4103   10.9612 C.3     1  UNL1        0.0277
     28 C          62.7305   84.9257    9.7167 C.ar    1  UNL1       -0.0073
     29 C          62.8751   84.1760    8.4256 C.ar    1  UNL1       -0.0015
     30 C          62.2152   84.6914    7.1811 C.ar    1  UNL1        0.0203
     31 C          61.4106   85.9565    7.2277 C.ar    1  UNL1        0.0985
     32 N          61.2660   86.7062    8.5189 N.ar    1  UNL1       -0.2471
     33 C          61.9260   86.1908    9.7633 C.ar    1  UNL1        0.0695
@<TRIPOS>BOND
     1    22    23    1
     2    23    21    1
     3     1    21    1
     4     1     2    1
     5     2     3    1
     6     3     4   ar
     7     4     5   ar
     8     5     6   ar
     9     6     7   ar
    10     7     8   ar
    11     8    12    1
    12    12    13    1
    13    14    13    1
    14    14    15    1
    15    15    16    1
    16    16    17    1
    17    18    17    1
    18    18    19    1
    19     4     9    1
    20     9    10    1
    21    24    23    1
    22    24    25    1
    23    25    26    1
    24    26    27    1
    25    27    28    1
    26    28    29   ar
    27    29    30   ar
    28    30    31   ar
    29    31    32   ar
    30    32    33   ar
    31    10     1    1
    32    33    24    1
    33     8     3   ar
    34    19    12    1
    35    33    28   ar
    36    18    14    1
    37    16    20    1
    38    10    11    1
@<TRIPOS>MOLECULE
*****
 33 38 0 0 0
SMALL
GASTEIGER

@<TRIPOS>ATOM
      1 C          63.0267   90.2252   12.3067 C.3     1  UNL1        0.0749
      2 C          64.1278   91.2414   12.2358 C.3     1  UNL1        0.0444
      3 C          64.7917   91.7167   13.4941 C.ar    1  UNL1       -0.0101
      4 C          64.3546   91.1758   14.8231 C.ar    1  UNL1       -0.0091
      5 C          65.0187   91.6512   16.0814 C.ar    1  UNL1       -0.0032
      6 C          66.1197   92.6674   16.0106 C.ar    1  UNL1        0.0010
      7 C          66.5568   93.2083   14.6815 C.ar    1  UNL1        0.0142
      8 C          65.8928   92.7330   13.4233 C.ar    1  UNL1        0.0436
      9 C          63.2536   90.1597   14.8940 C.3     1  UNL1        0.0954
     10 N          62.5897   89.6844   13.6357 N.3     1  UNL1       -0.2934
     11 H          61.5965   89.8976   13.7282 H       1  UNL1        0.1236
     12 N          66.3299   93.2739   12.0942 N.pl3   1  UNL1       -0.3076
     13 C          67.1268   92.5348   11.0604 C.3     1  UNL1        0.0922
     14 C          67.3362   93.4530    9.8928 C.3     1  UNL1        0.0385
     15 C          67.9581   93.5636    8.5324 C.3     1  UNL1        0.0703
     16 N          67.6750   94.9385    8.0038 N.3     1  UNL1       -0.2974
     17 C          66.8781   95.6776    9.0376 C.3     1  UNL1        0.0703
     18 C          66.6687   94.7595   10.2050 C.3     1  UNL1        0.0385
     19 C          66.0468   94.6488   11.5655 C.3     1  UNL1        0.0922
     20 H          67.1414   94.8730    7.1370 H       1  UNL1        0.1232
     21 C          62.3627   89.7499   11.0484 C.3     1  UNL1        0.0886
     22 C          62.6956   87.2768   11.7715 C.3     1  UNL1        0.0899
     23 N          62.0709   88.2907   10.8595 N.3     1  UNL1       -0.2667
     24 C          61.1546   87.8455    9.7586 C.3     1  UNL1        0.0978
     25 C          59.8286   88.5202    9.5675 C.3     1  UNL1        0.0224
     26 C          58.9122   88.0749    8.4666 C.3     1  UNL1        0.0065
     27 C          59.3218   86.9550    7.5568 C.3     1  UNL1        0.0277
     28 C          60.6478   86.2802    7.7478 C.ar    1  UNL1       -0.0073
     29 C          61.0574   85.1603    6.8379 C.ar    1  UNL1       -0.0015
     30 C          62.3834   84.4856    7.0289 C.ar    1  UNL1        0.0203
     31 C          63.2998   84.9309    8.1298 C.ar    1  UNL1        0.0985
     32 N          62.8902   86.0508    9.0397 N.ar    1  UNL1       -0.2471
     33 C          61.5642   86.7255    8.8487 C.ar    1  UNL1        0.0695
@<TRIPOS>BOND
     1    22    23    1
     2    23    21    1
     3     1    21    1
     4     1     2    1
     5     2     3    1
     6     3     4   ar
     7     4     5   ar
     8     5     6   ar
     9     6     7   ar
    10     7     8   ar
    11     8    12    1
    12    12    13    1
    13    14    13    1
    14    14    15    1
    15    15    16    1
    16    16    17    1
    17    18    17    1
    18    18    19    1
    19     4     9    1
    20     9    10    1
    21    24    23    1
    22    24    25    1
    23    25    26    1
    24    26    27    1
    25    27    28    1
    26    28    29   ar
    27    29    30   ar
    28    30    31   ar
    29    31    32   ar
    30    32    33   ar
    31    10     1    1
    32    33    24    1
    33     8     3   ar
    34    19    12    1
    35    33    28   ar
    36    18    14    1
    37    16    20    1
    38    10    11    1
@<TRIPOS>MOLECULE
*****
 33 38 0 0 0
SMALL
GASTEIGER

@<TRIPOS>ATOM
      1 C          61.2881   87.0907   10.2075 C.3     1  UNL1        0.0749
      2 C          61.9624   86.3945   11.3523 C.3     1  UNL1        0.0444
      3 C          62.8365   85.2030   11.0954 C.ar    1  UNL1       -0.0101
      4 C          63.0364   84.7076    9.6937 C.ar    1  UNL1       -0.0091
      5 C          63.9106   83.5160    9.4369 C.ar    1  UNL1       -0.0032
      6 C          64.5849   82.8199   10.5817 C.ar    1  UNL1        0.0010
      7 C          64.3851   83.3152   11.9833 C.ar    1  UNL1        0.0142
      8 C          63.5109   84.5067   12.2402 C.ar    1  UNL1        0.0436
      9 C          62.3621   85.4038    8.5489 C.3     1  UNL1        0.0954
     10 N          61.4879   86.5953    8.8058 N.3     1  UNL1       -0.2934
     11 H          60.5637   86.3669    8.4397 H       1  UNL1        0.1236
     12 N          63.3111   85.0021   13.6419 N.pl3   1  UNL1       -0.3076
     13 C          62.4641   84.3509   14.6948 C.3     1  UNL1        0.0922
     14 C          62.5526   85.1820   15.9404 C.3     1  UNL1        0.0385
     15 C          62.0840   85.2932   17.3609 C.3     1  UNL1        0.0703
     16 N          62.6960   86.5266   17.9558 N.3     1  UNL1       -0.2974
     17 C          63.5429   87.1778   16.9029 C.3     1  UNL1        0.0703
     18 C          63.4544   86.3468   15.6573 C.3     1  UNL1        0.0385
     19 C          63.9231   86.2356   14.2368 C.3     1  UNL1        0.0922
     20 H          63.2737   86.2742   18.7576 H       1  UNL1        0.1232
     21 C          60.4138   88.2823   10.4643 C.3     1  UNL1        0.0886
     22 C          59.9029   89.3873   12.7595 C.3     1  UNL1        0.0899
     23 N          60.7741   89.2577   11.5453 N.3     1  UNL1       -0.2667
     24 C          62.0056   90.1037   11.4122 C.3     1  UNL1        0.0978
     25 C          62.3516   90.7218   10.0900 C.3     1  UNL1        0.0224
     26 C          63.5831   91.5678    9.9569 C.3     1  UNL1        0.0065
     27 C          64.4686   91.7957   11.1459 C.3     1  UNL1        0.0277
     28 C          64.1227   91.1775   12.4682 C.ar    1  UNL1       -0.0073
     29 C          65.0082   91.4054   13.6572 C.ar    1  UNL1       -0.0015
     30 C          64.6623   90.7873   14.9794 C.ar    1  UNL1        0.0203
     31 C          63.4308   89.9413   15.1125 C.ar    1  UNL1        0.0985
     32 N          62.5452   89.7134   13.9235 N.ar    1  UNL1       -0.2471
     33 C          62.8912   90.3316   12.6013 C.ar    1  UNL1        0.0695
@<TRIPOS>BOND
     1    22    23    1
     2    23    21    1
     3     1    21    1
     4     1     2    1
     5     2     3    1
     6     3     4   ar
     7     4     5   ar
     8     5     6   ar
     9     6     7   ar
    10     7     8   ar
    11     8    12    1
    12    12    13    1
    13    14    13    1
    14    14    15    1
    15    15    16    1
    16    16    17    1
    17    18    17    1
    18    18    19    1
    19     4     9    1
    20     9    10    1
    21    24    23    1
    22    24    25    1
    23    25    26    1
    24    26    27    1
    25    27    28    1
    26    28    29   ar
    27    29    30   ar
    28    30    31   ar
    29    31    32   ar
    30    32    33   ar
    31    10     1    1
    32    33    24    1
    33     8     3   ar
    34    19    12    1
    35    33    28   ar
    36    18    14    1
    37    16    20    1
    38    10    11    1
