@<TRIPOS>MOLECULE
*****
 37 41 0 0 0
SMALL
GASTEIGER

@<TRIPOS>ATOM
      1 N          63.2188   90.3125   13.3468 N.3     1  UNL1       -0.2679
      2 C          64.2327   91.2744   12.8022 C.3     1  UNL1        0.0978
      3 C          64.2913   91.5479   11.3286 C.3     1  UNL1        0.0224
      4 C          65.3052   92.5099   10.7840 C.3     1  UNL1        0.0065
      5 C          66.2605   93.1984   11.7130 C.3     1  UNL1        0.0277
      6 C          66.2020   92.9249   13.1867 C.ar    1  UNL1       -0.0073
      7 C          67.1574   93.6134   14.1159 C.ar    1  UNL1       -0.0015
      8 C          67.0988   93.3400   15.5895 C.ar    1  UNL1        0.0203
      9 C          66.0849   92.3780   16.1341 C.ar    1  UNL1        0.0985
     10 N          65.1296   91.6895   15.2051 N.ar    1  UNL1       -0.2471
     11 C          65.1881   91.9629   13.7313 C.ar    1  UNL1        0.0695
     12 C          63.5405   89.4906   14.5597 C.3     1  UNL1        0.0725
     13 C          64.4921   88.3360   14.4526 C.3     1  UNL1        0.0188
     14 C          64.1610   87.0279   15.1076 C.3     1  UNL1        0.0188
     15 C          64.2342   85.7544   14.3185 C.3     1  UNL1        0.0721
     16 C          62.5109   84.6381   15.9105 C.3     1  UNL1        0.0896
     17 N          63.3097   84.6180   14.6411 N.3     1  UNL1       -0.2728
     18 C          63.1840   83.4615   13.6941 C.3     1  UNL1        0.0579
     19 C          62.8178   82.1029   14.2139 C.3     1  UNL1        0.0216
     20 C          62.6921   80.9464   13.2669 C.3     1  UNL1        0.0679
     21 C          62.9325   81.1485   11.8002 C.3     1  UNL1        0.2640
     22 F          63.0613   80.8418   10.3375 F       1  UNL1       -0.2043
     23 F          62.6111   79.6834   11.8120 F       1  UNL1       -0.2043
     24 C          63.2987   82.5071   11.2804 C.3     1  UNL1        0.0679
     25 C          63.4244   83.6636   12.2273 C.3     1  UNL1        0.0216
     26 C          61.8833   90.1723   12.6786 C.3     1  UNL1        0.0886
     27 C          61.6609   89.0873   11.6670 C.3     1  UNL1        0.0764
     28 C          60.6748   89.2893   10.5549 C.3     1  UNL1        0.0626
     29 C          60.4525   88.2042    9.5433 C.ar    1  UNL1        0.0577
     30 N          59.4663   88.4062    8.4313 N.ar    1  UNL1       -0.2484
     31 C          59.2440   87.3212    7.4197 C.ar    1  UNL1        0.0984
     32 C          60.0079   86.0342    7.5202 C.ar    1  UNL1        0.0204
     33 C          60.9941   85.8322    8.6322 C.ar    1  UNL1       -0.0002
     34 C          61.2163   86.9172    9.6438 C.ar    1  UNL1        0.0073
     35 C          62.2025   86.7152   10.7559 C.3     1  UNL1        0.0968
     36 N          62.4248   87.8002   11.7674 N.3     1  UNL1       -0.2934
     37 H          63.4150   88.0417   11.7275 H       1  UNL1        0.1236
@<TRIPOS>BOND
     1    16    17    1
     2    17    15    1
     3    15    14    1
     4    14    13    1
     5    13    12    1
     6    12     1    1
     7     1    26    1
     8    27    26    1
     9    27    28    1
    10    28    29    1
    11    29    30   ar
    12    30    31   ar
    13    31    32   ar
    14    32    33   ar
    15    33    34   ar
    16    34    35    1
    17    35    36    1
    18     2     1    1
    19     2     3    1
    20     3     4    1
    21     4     5    1
    22     5     6    1
    23     6     7   ar
    24     7     8   ar
    25     8     9   ar
    26     9    10   ar
    27    10    11   ar
    28    17    18    1
    29    18    19    1
    30    19    20    1
    31    20    21    1
    32    21    22    1
    33    21    23    1
    34    21    24    1
    35    24    25    1
    36    36    27    1
    37    11     2    1
    38    25    18    1
    39    34    29   ar
    40    11     6   ar
    41    36    37    1
@<TRIPOS>MOLECULE
*****
 37 41 0 0 0
SMALL
GASTEIGER

@<TRIPOS>ATOM
      1 N          65.1859   92.3376   12.0127 N.3     1  UNL1       -0.2679
      2 C          66.2510   92.6965   11.0193 C.3     1  UNL1        0.0978
      3 C          67.2769   91.6782   10.6190 C.3     1  UNL1        0.0224
      4 C          68.3421   92.0371    9.6256 C.3     1  UNL1        0.0065
      5 C          68.3813   93.4143    9.0327 C.3     1  UNL1        0.0277
      6 C          67.3553   94.4326    9.4331 C.ar    1  UNL1       -0.0073
      7 C          67.3945   95.8100    8.8401 C.ar    1  UNL1       -0.0015
      8 C          66.3685   96.8283    9.2405 C.ar    1  UNL1        0.0203
      9 C          65.3034   96.4694   10.2338 C.ar    1  UNL1        0.0985
     10 N          65.2642   95.0922   10.8268 N.ar    1  UNL1       -0.2471
     11 C          66.2902   94.0738   10.4264 C.ar    1  UNL1        0.0695
     12 C          63.8039   91.9962   11.5400 C.3     1  UNL1        0.0725
     13 C          63.6150   91.0168   10.4196 C.3     1  UNL1        0.0188
     14 C          62.8187   89.7655   10.6435 C.3     1  UNL1        0.0188
     15 C          61.4323   89.6484   10.0831 C.3     1  UNL1        0.0721
     16 C          59.9143   88.4271    8.3643 C.3     1  UNL1        0.0896
     17 N          61.0071   88.3873    9.3911 N.3     1  UNL1       -0.2728
     18 C          61.6746   87.0864    9.7259 C.3     1  UNL1        0.0579
     19 C          61.5966   86.5406   11.1209 C.3     1  UNL1        0.0216
     20 C          62.2642   85.2398   11.4557 C.3     1  UNL1        0.0679
     21 C          63.0097   84.4847   10.3955 C.3     1  UNL1        0.2640
     22 F          63.8267   83.4105    9.7408 F       1  UNL1       -0.2043
     23 F          63.2154   83.5658   11.5632 F       1  UNL1       -0.2043
     24 C          63.0877   85.0305    9.0005 C.3     1  UNL1        0.0679
     25 C          62.4202   86.3314    8.6657 C.3     1  UNL1        0.0216
     26 C          65.5027   92.3202   13.4787 C.3     1  UNL1        0.0886
     27 C          64.8592   91.3023   14.3731 C.3     1  UNL1        0.0764
     28 C          64.9790   89.8414   14.0546 C.3     1  UNL1        0.0626
     29 C          64.3354   88.8236   14.9490 C.ar    1  UNL1        0.0577
     30 N          64.4552   87.3627   14.6305 N.ar    1  UNL1       -0.2484
     31 C          63.8117   86.3449   15.5248 C.ar    1  UNL1        0.0984
     32 C          63.0483   86.7880   16.7377 C.ar    1  UNL1        0.0204
     33 C          62.9285   88.2489   17.0562 C.ar    1  UNL1       -0.0002
     34 C          63.5721   89.2666   16.1618 C.ar    1  UNL1        0.0073
     35 C          63.4523   90.7276   16.4803 C.3     1  UNL1        0.0968
     36 N          64.0958   91.7454   15.5859 N.3     1  UNL1       -0.2934
     37 H          64.7458   92.2771   16.1649 H       1  UNL1        0.1236
@<TRIPOS>BOND
     1    16    17    1
     2    17    15    1
     3    15    14    1
     4    14    13    1
     5    13    12    1
     6    12     1    1
     7     1    26    1
     8    27    26    1
     9    27    28    1
    10    28    29    1
    11    29    30   ar
    12    30    31   ar
    13    31    32   ar
    14    32    33   ar
    15    33    34   ar
    16    34    35    1
    17    35    36    1
    18     2     1    1
    19     2     3    1
    20     3     4    1
    21     4     5    1
    22     5     6    1
    23     6     7   ar
    24     7     8   ar
    25     8     9   ar
    26     9    10   ar
    27    10    11   ar
    28    17    18    1
    29    18    19    1
    30    19    20    1
    31    20    21    1
    32    21    22    1
    33    21    23    1
    34    21    24    1
    35    24    25    1
    36    36    27    1
    37    11     2    1
    38    25    18    1
    39    34    29   ar
    40    11     6   ar
    41    36    37    1
@<TRIPOS>MOLECULE
*****
 37 41 0 0 0
SMALL
GASTEIGER

@<TRIPOS>ATOM
      1 N          63.8328   89.9445   13.4155 N.3     1  UNL1       -0.2679
      2 C          64.7148   91.0958   13.7984 C.3     1  UNL1        0.0978
      3 C          65.1609   91.2579   15.2213 C.3     1  UNL1        0.0224
      4 C          66.0429   92.4093   15.6042 C.3     1  UNL1        0.0065
      5 C          66.4787   93.3984   14.5642 C.3     1  UNL1        0.0277
      6 C          66.0325   93.2363   13.1413 C.ar    1  UNL1       -0.0073
      7 C          66.4682   94.2255   12.1013 C.ar    1  UNL1       -0.0015
      8 C          66.0220   94.0633   10.6784 C.ar    1  UNL1        0.0203
      9 C          65.1401   92.9120   10.2955 C.ar    1  UNL1        0.0985
     10 N          64.7043   91.9228   11.3355 N.ar    1  UNL1       -0.2471
     11 C          65.1505   92.0850   12.7585 C.ar    1  UNL1        0.0695
     12 C          64.2605   88.5390   13.7183 C.3     1  UNL1        0.0725
     13 C          64.0726   87.9783   15.0969 C.3     1  UNL1        0.0188
     14 C          64.4132   86.5445   15.3762 C.3     1  UNL1        0.0188
     15 C          64.2028   85.5036   14.3169 C.3     1  UNL1        0.0721
     16 C          62.3227   84.4179   15.7440 C.3     1  UNL1        0.0896
     17 N          63.2162   84.3957   14.5393 N.3     1  UNL1       -0.2728
     18 C          63.1232   83.2659   13.5571 C.3     1  UNL1        0.0579
     19 C          62.7516   81.8912   14.0284 C.3     1  UNL1        0.0216
     20 C          62.6586   80.7613   13.0462 C.3     1  UNL1        0.0679
     21 C          62.9371   81.0061   11.5928 C.3     1  UNL1        0.2640
     22 F          63.1070   80.7416   10.1260 F       1  UNL1       -0.2043
     23 F          62.6245   79.5395   11.5546 F       1  UNL1       -0.2043
     24 C          63.3086   82.3809   11.1215 C.3     1  UNL1        0.0679
     25 C          63.4017   83.5107   12.1037 C.3     1  UNL1        0.0216
     26 C          62.5231   90.1986   12.7299 C.3     1  UNL1        0.0886
     27 C          61.9951   89.2112   11.7317 C.3     1  UNL1        0.0764
     28 C          61.1817   89.6867   10.5646 C.3     1  UNL1        0.0626
     29 C          60.6537   88.6994    9.5663 C.ar    1  UNL1        0.0577
     30 N          59.8404   89.1749    8.3992 N.ar    1  UNL1       -0.2484
     31 C          59.3124   88.1875    7.4010 C.ar    1  UNL1        0.0984
     32 C          59.5978   86.7247    7.5701 C.ar    1  UNL1        0.0204
     33 C          60.4111   86.2491    8.7372 C.ar    1  UNL1       -0.0002
     34 C          60.9391   87.2365    9.7353 C.ar    1  UNL1        0.0073
     35 C          61.7525   86.7610   10.9026 C.3     1  UNL1        0.0968
     36 N          62.2805   87.7483   11.9007 N.3     1  UNL1       -0.2934
     37 H          63.2952   87.6453   11.9084 H       1  UNL1        0.1236
@<TRIPOS>BOND
     1    16    17    1
     2    17    15    1
     3    15    14    1
     4    14    13    1
     5    13    12    1
     6    12     1    1
     7     1    26    1
     8    27    26    1
     9    27    28    1
    10    28    29    1
    11    29    30   ar
    12    30    31   ar
    13    31    32   ar
    14    32    33   ar
    15    33    34   ar
    16    34    35    1
    17    35    36    1
    18     2     1    1
    19     2     3    1
    20     3     4    1
    21     4     5    1
    22     5     6    1
    23     6     7   ar
    24     7     8   ar
    25     8     9   ar
    26     9    10   ar
    27    10    11   ar
    28    17    18    1
    29    18    19    1
    30    19    20    1
    31    20    21    1
    32    21    22    1
    33    21    23    1
    34    21    24    1
    35    24    25    1
    36    36    27    1
    37    11     2    1
    38    25    18    1
    39    34    29   ar
    40    11     6   ar
    41    36    37    1
@<TRIPOS>MOLECULE
*****
 37 41 0 0 0
SMALL
GASTEIGER

@<TRIPOS>ATOM
      1 N          63.6590   88.6480   14.0574 N.3     1  UNL1       -0.2679
      2 C          63.3657   89.2215   12.7028 C.3     1  UNL1        0.0978
      3 C          63.8654   90.5893   12.3432 C.3     1  UNL1        0.0224
      4 C          63.5720   91.1628   10.9885 C.3     1  UNL1        0.0065
      5 C          62.7789   90.3685    9.9935 C.3     1  UNL1        0.0277
      6 C          62.2792   89.0007   10.3531 C.ar    1  UNL1       -0.0073
      7 C          61.4861   88.2063    9.3581 C.ar    1  UNL1       -0.0015
      8 C          60.9864   86.8385    9.7177 C.ar    1  UNL1        0.0203
      9 C          61.2798   86.2650   11.0723 C.ar    1  UNL1        0.0985
     10 N          62.0728   87.0593   12.0673 N.ar    1  UNL1       -0.2471
     11 C          62.5726   88.4272   11.7078 C.ar    1  UNL1        0.0695
     12 C          63.0986   89.3012   15.2858 C.3     1  UNL1        0.0725
     13 C          63.7661   90.5154   15.8605 C.3     1  UNL1        0.0188
     14 C          65.0512   91.0151   15.2698 C.3     1  UNL1        0.0188
     15 C          65.6357   92.3151   15.7368 C.3     1  UNL1        0.0721
     16 C          67.9526   93.4841   15.8615 C.3     1  UNL1        0.0896
     17 N          66.8422   92.8844   15.0508 N.3     1  UNL1       -0.2728
     18 C          66.9381   92.8539   13.5542 C.3     1  UNL1        0.0579
     19 C          67.8502   91.8717   12.8810 C.3     1  UNL1        0.0216
     20 C          67.9462   91.8412   11.3844 C.3     1  UNL1        0.0679
     21 C          67.1300   92.7929   10.5610 C.3     1  UNL1        0.2640
     22 F          66.5621   93.4873    9.3587 F       1  UNL1       -0.2043
     23 F          67.8449   92.0518    9.4702 F       1  UNL1       -0.2043
     24 C          66.2179   93.7752   11.2342 C.3     1  UNL1        0.0679
     25 C          66.1219   93.8057   12.7308 C.3     1  UNL1        0.0216
     26 C          64.5128   87.4212   14.1836 C.3     1  UNL1        0.0886
     27 C          63.8724   86.0679   14.2757 C.3     1  UNL1        0.0764
     28 C          64.0828   85.0625   13.1826 C.3     1  UNL1        0.0626
     29 C          63.4424   83.7092   13.2748 C.ar    1  UNL1        0.0577
     30 N          63.6528   82.7039   12.1817 N.ar    1  UNL1       -0.2484
     31 C          63.0124   81.3506   12.2739 C.ar    1  UNL1        0.0984
     32 C          62.1615   81.0027   13.4592 C.ar    1  UNL1        0.0204
     33 C          61.9510   82.0081   14.5523 C.ar    1  UNL1       -0.0002
     34 C          62.5915   83.3613   14.4601 C.ar    1  UNL1        0.0073
     35 C          62.3810   84.3667   15.5532 C.3     1  UNL1        0.0968
     36 N          63.0215   85.7200   15.4610 N.3     1  UNL1       -0.2934
     37 H          63.6107   85.8237   16.2871 H       1  UNL1        0.1236
@<TRIPOS>BOND
     1    16    17    1
     2    17    15    1
     3    15    14    1
     4    14    13    1
     5    13    12    1
     6    12     1    1
     7     1    26    1
     8    27    26    1
     9    27    28    1
    10    28    29    1
    11    29    30   ar
    12    30    31   ar
    13    31    32   ar
    14    32    33   ar
    15    33    34   ar
    16    34    35    1
    17    35    36    1
    18     2     1    1
    19     2     3    1
    20     3     4    1
    21     4     5    1
    22     5     6    1
    23     6     7   ar
    24     7     8   ar
    25     8     9   ar
    26     9    10   ar
    27    10    11   ar
    28    17    18    1
    29    18    19    1
    30    19    20    1
    31    20    21    1
    32    21    22    1
    33    21    23    1
    34    21    24    1
    35    24    25    1
    36    36    27    1
    37    11     2    1
    38    25    18    1
    39    34    29   ar
    40    11     6   ar
    41    36    37    1
@<TRIPOS>MOLECULE
*****
 37 41 0 0 0
SMALL
GASTEIGER

@<TRIPOS>ATOM
      1 N          63.9102   90.0125   13.4919 N.3     1  UNL1       -0.2679
      2 C          64.3594   90.8329   14.6645 C.3     1  UNL1        0.0978
      3 C          63.4627   90.9916   15.8564 C.3     1  UNL1        0.0224
      4 C          63.9119   91.8121   17.0290 C.3     1  UNL1        0.0065
      5 C          65.2579   92.4738   17.0098 C.3     1  UNL1        0.0277
      6 C          66.1546   92.3150   15.8179 C.ar    1  UNL1       -0.0073
      7 C          67.5007   92.9767   15.7987 C.ar    1  UNL1       -0.0015
      8 C          68.3975   92.8180   14.6068 C.ar    1  UNL1        0.0203
      9 C          67.9482   91.9976   13.4342 C.ar    1  UNL1        0.0985
     10 N          66.6023   91.3359   13.4534 N.ar    1  UNL1       -0.2471
     11 C          65.7054   91.4946   14.6453 C.ar    1  UNL1        0.0695
     12 C          63.9476   88.5148   13.5660 C.3     1  UNL1        0.0725
     13 C          64.6493   87.8376   14.7058 C.3     1  UNL1        0.0188
     14 C          64.1589   86.5115   15.2068 C.3     1  UNL1        0.0188
     15 C          64.1469   85.3223   14.2926 C.3     1  UNL1        0.0721
     16 C          62.0449   84.4035   15.5123 C.3     1  UNL1        0.0896
     17 N          63.0684   84.2878   14.4219 N.3     1  UNL1       -0.2728
     18 C          63.0134   83.1375   13.4607 C.3     1  UNL1        0.0579
     19 C          63.2366   83.3726   11.9962 C.3     1  UNL1        0.0216
     20 C          63.1816   82.2224   11.0350 C.3     1  UNL1        0.0679
     21 C          62.9035   80.8370   11.5383 C.3     1  UNL1        0.2640
     22 F          62.6753   79.3544   11.5323 F       1  UNL1       -0.2043
     23 F          63.0474   80.5572   10.0717 F       1  UNL1       -0.2043
     24 C          62.6803   80.6019   13.0029 C.3     1  UNL1        0.0679
     25 C          62.7353   81.7521   13.9641 C.3     1  UNL1        0.0216
     26 C          63.4235   90.6897   12.2451 C.3     1  UNL1        0.0886
     27 C          62.3971   90.0205   11.3799 C.3     1  UNL1        0.0764
     28 C          62.7386   88.7524   10.6552 C.3     1  UNL1        0.0626
     29 C          61.7122   88.0832    9.7900 C.ar    1  UNL1        0.0577
     30 N          62.0538   86.8151    9.0653 N.ar    1  UNL1       -0.2484
     31 C          61.0273   86.1459    8.2001 C.ar    1  UNL1        0.0984
     32 C          59.6592   86.7449    8.0596 C.ar    1  UNL1        0.0204
     33 C          59.3177   88.0129    8.7843 C.ar    1  UNL1       -0.0002
     34 C          60.3441   88.6821    9.6495 C.ar    1  UNL1        0.0073
     35 C          60.0026   89.9503   10.3742 C.3     1  UNL1        0.0968
     36 N          61.0290   90.6194   11.2394 N.3     1  UNL1       -0.2934
     37 H          60.6333   90.6730   12.1780 H       1  UNL1        0.1236
@<TRIPOS>BOND
     1    16    17    1
     2    17    15    1
     3    15    14    1
     4    14    13    1
     5    13    12    1
     6    12     1    1
     7     1    26    1
     8    27    26    1
     9    27    28    1
    10    28    29    1
    11    29    30   ar
    12    30    31   ar
    13    31    32   ar
    14    32    33   ar
    15    33    34   ar
    16    34    35    1
    17    35    36    1
    18     2     1    1
    19     2     3    1
    20     3     4    1
    21     4     5    1
    22     5     6    1
    23     6     7   ar
    24     7     8   ar
    25     8     9   ar
    26     9    10   ar
    27    10    11   ar
    28    17    18    1
    29    18    19    1
    30    19    20    1
    31    20    21    1
    32    21    22    1
    33    21    23    1
    34    21    24    1
    35    24    25    1
    36    36    27    1
    37    11     2    1
    38    25    18    1
    39    34    29   ar
    40    11     6   ar
    41    36    37    1
@<TRIPOS>MOLECULE
*****
 37 41 0 0 0
SMALL
GASTEIGER

@<TRIPOS>ATOM
      1 N          64.2326   90.1920   14.9180 N.3     1  UNL1       -0.2679
      2 C          65.1424   91.3679   14.7191 C.3     1  UNL1        0.0978
      3 C          65.9451   91.8981   15.8699 C.3     1  UNL1        0.0224
      4 C          66.8549   93.0740   15.6711 C.3     1  UNL1        0.0065
      5 C          66.9619   93.7197   14.3215 C.3     1  UNL1        0.0277
      6 C          66.1591   93.1895   13.1707 C.ar    1  UNL1       -0.0073
      7 C          66.2661   93.8352   11.8209 C.ar    1  UNL1       -0.0015
      8 C          65.4633   93.3050   10.6701 C.ar    1  UNL1        0.0203
      9 C          64.5536   92.1291   10.8690 C.ar    1  UNL1        0.0985
     10 N          64.4466   91.4834   12.2186 N.ar    1  UNL1       -0.2471
     11 C          65.2494   92.0136   13.3695 C.ar    1  UNL1        0.0695
     12 C          63.2976   90.1569   16.0903 C.3     1  UNL1        0.0725
     13 C          62.6310   88.8708   16.4798 C.3     1  UNL1        0.0188
     14 C          63.4602   87.6587   16.7852 C.3     1  UNL1        0.0188
     15 C          63.0612   86.3200   16.2387 C.3     1  UNL1        0.0721
     16 C          65.3757   86.0675   15.0857 C.3     1  UNL1        0.0896
     17 N          63.9619   85.6041   15.2762 N.3     1  UNL1       -0.2728
     18 C          63.4487   84.4248   14.5043 C.3     1  UNL1        0.0579
     19 C          63.8023   84.2654   13.0554 C.3     1  UNL1        0.0216
     20 C          63.2891   83.0861   12.2835 C.3     1  UNL1        0.0679
     21 C          62.4223   82.0662   12.9605 C.3     1  UNL1        0.2640
     22 F          61.5763   80.8434   13.1582 F       1  UNL1       -0.2043
     23 F          62.4820   81.4821   11.5802 F       1  UNL1       -0.2043
     24 C          62.0687   82.2255   14.4096 C.3     1  UNL1        0.0679
     25 C          62.5819   83.4048   15.1815 C.3     1  UNL1        0.0216
     26 C          64.2578   89.0511   13.9444 C.3     1  UNL1        0.0886
     27 C          63.1570   88.9006   12.9366 C.3     1  UNL1        0.0764
     28 C          63.1274   87.7052   12.0312 C.3     1  UNL1        0.0626
     29 C          62.0266   87.5547   11.0233 C.ar    1  UNL1        0.0577
     30 N          61.9970   86.3592   10.1179 N.ar    1  UNL1       -0.2484
     31 C          60.8962   86.2088    9.1101 C.ar    1  UNL1        0.0984
     32 C          59.8250   87.2538    9.0078 C.ar    1  UNL1        0.0204
     33 C          59.8546   88.4493    9.9133 C.ar    1  UNL1       -0.0002
     34 C          60.9554   88.5997   10.9211 C.ar    1  UNL1        0.0073
     35 C          60.9850   89.7952   11.8266 C.3     1  UNL1        0.0968
     36 N          62.0858   89.9457   12.8344 N.3     1  UNL1       -0.2934
     37 H          61.6407   90.0017   13.7504 H       1  UNL1        0.1236
@<TRIPOS>BOND
     1    16    17    1
     2    17    15    1
     3    15    14    1
     4    14    13    1
     5    13    12    1
     6    12     1    1
     7     1    26    1
     8    27    26    1
     9    27    28    1
    10    28    29    1
    11    29    30   ar
    12    30    31   ar
    13    31    32   ar
    14    32    33   ar
    15    33    34   ar
    16    34    35    1
    17    35    36    1
    18     2     1    1
    19     2     3    1
    20     3     4    1
    21     4     5    1
    22     5     6    1
    23     6     7   ar
    24     7     8   ar
    25     8     9   ar
    26     9    10   ar
    27    10    11   ar
    28    17    18    1
    29    18    19    1
    30    19    20    1
    31    20    21    1
    32    21    22    1
    33    21    23    1
    34    21    24    1
    35    24    25    1
    36    36    27    1
    37    11     2    1
    38    25    18    1
    39    34    29   ar
    40    11     6   ar
    41    36    37    1
@<TRIPOS>MOLECULE
*****
 37 41 0 0 0
SMALL
GASTEIGER

@<TRIPOS>ATOM
      1 N          63.3318   85.2072   12.9979 N.3     1  UNL1       -0.2679
      2 C          63.4597   84.0015   12.1147 C.3     1  UNL1        0.0978
      3 C          64.0848   84.1291   10.7572 C.3     1  UNL1        0.0224
      4 C          64.2127   82.9234    9.8740 C.3     1  UNL1        0.0065
      5 C          63.7154   81.5902   10.3484 C.3     1  UNL1        0.0277
      6 C          63.0903   81.4625   11.7059 C.ar    1  UNL1       -0.0073
      7 C          62.5930   80.1292   12.1803 C.ar    1  UNL1       -0.0015
      8 C          61.9679   80.0016   13.5378 C.ar    1  UNL1        0.0203
      9 C          61.8400   81.2072   14.4209 C.ar    1  UNL1        0.0985
     10 N          62.3372   82.5405   13.9466 N.ar    1  UNL1       -0.2471
     11 C          62.9624   82.6682   12.5890 C.ar    1  UNL1        0.0695
     12 C          64.5007   85.6614   13.8209 C.3     1  UNL1        0.0725
     13 C          64.3139   86.7160   14.8711 C.3     1  UNL1        0.0188
     14 C          64.5175   88.1617   14.5268 C.3     1  UNL1        0.0188
     15 C          63.6992   89.2176   15.2090 C.3     1  UNL1        0.0721
     16 C          64.0301   91.4781   16.4461 C.3     1  UNL1        0.0896
     17 N          64.1630   90.6441   15.2065 N.3     1  UNL1       -0.2728
     18 C          64.7596   91.2366   13.9643 C.3     1  UNL1        0.0579
     19 C          63.9437   91.3247   12.7088 C.3     1  UNL1        0.0216
     20 C          64.5403   91.9172   11.4666 C.3     1  UNL1        0.0679
     21 C          65.9529   92.4215   11.4800 C.3     1  UNL1        0.2640
     22 F          67.2370   93.0298   10.9993 F       1  UNL1       -0.2043
     23 F          65.5829   92.7209   10.0575 F       1  UNL1       -0.2043
     24 C          66.7689   92.3333   12.7356 C.3     1  UNL1        0.0679
     25 C          66.1723   91.7409   13.9777 C.3     1  UNL1        0.0216
     26 C          62.0350   85.9586   13.0581 C.3     1  UNL1        0.0886
     27 C          61.6171   86.8268   11.9084 C.3     1  UNL1        0.0764
     28 C          60.8531   86.2354   10.7610 C.3     1  UNL1        0.0626
     29 C          60.4352   87.1035    9.6113 C.ar    1  UNL1        0.0577
     30 N          59.6712   86.5122    8.4639 N.ar    1  UNL1       -0.2484
     31 C          59.2534   87.3803    7.3143 C.ar    1  UNL1        0.0984
     32 C          59.5995   88.8398    7.3121 C.ar    1  UNL1        0.0204
     33 C          60.3636   89.4312    8.4594 C.ar    1  UNL1       -0.0002
     34 C          60.7814   88.5630    9.6090 C.ar    1  UNL1        0.0073
     35 C          61.5455   89.1544   10.7565 C.3     1  UNL1        0.0968
     36 N          61.9633   88.2863   11.9061 N.3     1  UNL1       -0.2934
     37 H          61.5470   88.6889   12.7457 H       1  UNL1        0.1236
@<TRIPOS>BOND
     1    16    17    1
     2    17    15    1
     3    15    14    1
     4    14    13    1
     5    13    12    1
     6    12     1    1
     7     1    26    1
     8    27    26    1
     9    27    28    1
    10    28    29    1
    11    29    30   ar
    12    30    31   ar
    13    31    32   ar
    14    32    33   ar
    15    33    34   ar
    16    34    35    1
    17    35    36    1
    18     2     1    1
    19     2     3    1
    20     3     4    1
    21     4     5    1
    22     5     6    1
    23     6     7   ar
    24     7     8   ar
    25     8     9   ar
    26     9    10   ar
    27    10    11   ar
    28    17    18    1
    29    18    19    1
    30    19    20    1
    31    20    21    1
    32    21    22    1
    33    21    23    1
    34    21    24    1
    35    24    25    1
    36    36    27    1
    37    11     2    1
    38    25    18    1
    39    34    29   ar
    40    11     6   ar
    41    36    37    1
@<TRIPOS>MOLECULE
*****
 37 41 0 0 0
SMALL
GASTEIGER

@<TRIPOS>ATOM
      1 N          64.3099   90.6507   13.3367 N.3     1  UNL1       -0.2679
      2 C          63.9380   90.0263   14.6489 C.3     1  UNL1        0.0978
      3 C          63.6123   90.8953   15.8274 C.3     1  UNL1        0.0224
      4 C          63.2404   90.2709   17.1396 C.3     1  UNL1        0.0065
      5 C          63.1943   88.7776   17.2733 C.3     1  UNL1        0.0277
      6 C          63.5200   87.9087   16.0948 C.ar    1  UNL1       -0.0073
      7 C          63.4738   86.4153   16.2286 C.ar    1  UNL1       -0.0015
      8 C          63.7996   85.5464   15.0501 C.ar    1  UNL1        0.0203
      9 C          64.1715   86.1708   13.7379 C.ar    1  UNL1        0.0985
     10 N          64.2176   87.6640   13.6041 N.ar    1  UNL1       -0.2471
     11 C          63.8919   88.5330   14.7826 C.ar    1  UNL1        0.0695
     12 C          63.2679   90.8412   12.2747 C.3     1  UNL1        0.0725
     13 C          62.9869   89.7416   11.2938 C.3     1  UNL1        0.0188
     14 C          62.1851   90.0255   10.0584 C.3     1  UNL1        0.0188
     15 C          60.8086   89.4486    9.9087 C.3     1  UNL1        0.0721
     16 C          59.6294   88.0909    8.0336 C.3     1  UNL1        0.0896
     17 N          60.6118   88.1609    9.1648 N.3     1  UNL1       -0.2728
     18 C          61.3976   86.9434    9.5523 C.3     1  UNL1        0.0579
     19 C          62.3036   86.2863    8.5536 C.3     1  UNL1        0.0216
     20 C          63.0894   85.0687    8.9410 C.3     1  UNL1        0.0679
     21 C          62.9692   84.5083   10.3272 C.3     1  UNL1        0.2640
     22 F          63.1903   83.6114   11.5090 F       1  UNL1       -0.2043
     23 F          63.9520   83.5397    9.7389 F       1  UNL1       -0.2043
     24 C          62.0632   85.1653   11.3259 C.3     1  UNL1        0.0679
     25 C          61.2774   86.3829   10.9385 C.3     1  UNL1        0.0216
     26 C          65.7238   91.0845   13.0865 C.3     1  UNL1        0.0886
     27 C          65.9977   92.3948   12.4094 C.3     1  UNL1        0.0764
     28 C          66.4554   92.4197   10.9812 C.3     1  UNL1        0.0626
     29 C          66.7293   93.7300   10.3042 C.ar    1  UNL1        0.0577
     30 N          67.1871   93.7549    8.8760 N.ar    1  UNL1       -0.2484
     31 C          67.4609   95.0651    8.1990 C.ar    1  UNL1        0.0984
     32 C          67.2769   96.3504    8.9502 C.ar    1  UNL1        0.0204
     33 C          66.8192   96.3254   10.3784 C.ar    1  UNL1       -0.0002
     34 C          66.5453   95.0152   11.0554 C.ar    1  UNL1        0.0073
     35 C          66.0875   94.9902   12.4837 C.3     1  UNL1        0.0968
     36 N          65.8137   93.6800   13.1606 N.3     1  UNL1       -0.2934
     37 H          64.8414   93.7049   13.4679 H       1  UNL1        0.1236
@<TRIPOS>BOND
     1    16    17    1
     2    17    15    1
     3    15    14    1
     4    14    13    1
     5    13    12    1
     6    12     1    1
     7     1    26    1
     8    27    26    1
     9    27    28    1
    10    28    29    1
    11    29    30   ar
    12    30    31   ar
    13    31    32   ar
    14    32    33   ar
    15    33    34   ar
    16    34    35    1
    17    35    36    1
    18     2     1    1
    19     2     3    1
    20     3     4    1
    21     4     5    1
    22     5     6    1
    23     6     7   ar
    24     7     8   ar
    25     8     9   ar
    26     9    10   ar
    27    10    11   ar
    28    17    18    1
    29    18    19    1
    30    19    20    1
    31    20    21    1
    32    21    22    1
    33    21    23    1
    34    21    24    1
    35    24    25    1
    36    36    27    1
    37    11     2    1
    38    25    18    1
    39    34    29   ar
    40    11     6   ar
    41    36    37    1
@<TRIPOS>MOLECULE
*****
 37 41 0 0 0
SMALL
GASTEIGER

@<TRIPOS>ATOM
      1 N          64.0471   89.3597   14.6360 N.3     1  UNL1       -0.2679
      2 C          63.6490   88.3269   15.6484 C.3     1  UNL1        0.0978
      3 C          63.0566   88.7511   16.9595 C.3     1  UNL1        0.0224
      4 C          62.6585   87.7183   17.9718 C.3     1  UNL1        0.0065
      5 C          62.8528   86.2613   17.6731 C.3     1  UNL1        0.0277
      6 C          63.4453   85.8371   16.3620 C.ar    1  UNL1       -0.0073
      7 C          63.6396   84.3800   16.0632 C.ar    1  UNL1       -0.0015
      8 C          64.2321   83.9558   14.7522 C.ar    1  UNL1        0.0203
      9 C          64.6302   84.9886   13.7398 C.ar    1  UNL1        0.0985
     10 N          64.4359   86.4456   14.0385 N.ar    1  UNL1       -0.2471
     11 C          63.8434   86.8699   15.3497 C.ar    1  UNL1        0.0695
     12 C          63.0498   89.8424   13.6250 C.3     1  UNL1        0.0725
     13 C          62.9797   89.1965   12.2730 C.3     1  UNL1        0.0188
     14 C          62.1009   89.7810   11.2072 C.3     1  UNL1        0.0188
     15 C          62.0817   89.1750    9.8352 C.3     1  UNL1        0.0721
     16 C          59.9025   87.9817    9.0755 C.3     1  UNL1        0.0896
     17 N          61.3120   87.9123    9.5838 N.3     1  UNL1       -0.2728
     18 C          61.9519   86.5801    9.8406 C.3     1  UNL1        0.0579
     19 C          62.7856   85.9308    8.7760 C.3     1  UNL1        0.0216
     20 C          63.4255   84.5987    9.0329 C.3     1  UNL1        0.0679
     21 C          63.2317   83.9159   10.3543 C.3     1  UNL1        0.2640
     22 F          63.3406   82.8830   11.4366 F       1  UNL1       -0.2043
     23 F          64.1032   82.9078    9.6655 F       1  UNL1       -0.2043
     24 C          62.3980   84.5652   11.4189 C.3     1  UNL1        0.0679
     25 C          61.7581   85.8973   11.1621 C.3     1  UNL1        0.0216
     26 C          65.4426   89.9098   14.6347 C.3     1  UNL1        0.0886
     27 C          65.7102   91.2747   14.0730 C.3     1  UNL1        0.0764
     28 C          65.4347   91.5575   12.6259 C.3     1  UNL1        0.0626
     29 C          65.7024   92.9224   12.0643 C.ar    1  UNL1        0.0577
     30 N          65.4269   93.2052   10.6172 N.ar    1  UNL1       -0.2484
     31 C          65.6945   94.5700   10.0556 C.ar    1  UNL1        0.0984
     32 C          66.2377   95.6521   10.9410 C.ar    1  UNL1        0.0204
     33 C          66.5131   95.3694   12.3881 C.ar    1  UNL1       -0.0002
     34 C          66.2455   94.0045   12.9497 C.ar    1  UNL1        0.0073
     35 C          66.5210   93.7217   14.3969 C.3     1  UNL1        0.0968
     36 N          66.2534   92.3568   14.9585 N.3     1  UNL1       -0.2934
     37 H          65.5852   92.4774   15.7197 H       1  UNL1        0.1236
@<TRIPOS>BOND
     1    16    17    1
     2    17    15    1
     3    15    14    1
     4    14    13    1
     5    13    12    1
     6    12     1    1
     7     1    26    1
     8    27    26    1
     9    27    28    1
    10    28    29    1
    11    29    30   ar
    12    30    31   ar
    13    31    32   ar
    14    32    33   ar
    15    33    34   ar
    16    34    35    1
    17    35    36    1
    18     2     1    1
    19     2     3    1
    20     3     4    1
    21     4     5    1
    22     5     6    1
    23     6     7   ar
    24     7     8   ar
    25     8     9   ar
    26     9    10   ar
    27    10    11   ar
    28    17    18    1
    29    18    19    1
    30    19    20    1
    31    20    21    1
    32    21    22    1
    33    21    23    1
    34    21    24    1
    35    24    25    1
    36    36    27    1
    37    11     2    1
    38    25    18    1
    39    34    29   ar
    40    11     6   ar
    41    36    37    1
