@<TRIPOS>MOLECULE
*****
 33 37 0 0 0
SMALL
GASTEIGER

@<TRIPOS>ATOM
      1 C          62.3582   89.7062   11.8888 C.ar    1  UNL1        0.1834
      2 N          61.8044   90.5709   10.7954 N.ar    1  UNL1       -0.1298
      3 N          61.3809   89.6775    9.6674 N.ar    1  UNL1       -0.1272
      4 C          61.6730   88.2605   10.0636 C.ar    1  UNL1        0.1864
      5 C          61.4670   86.9565    9.3517 C.ar    1  UNL1        0.0422
      6 C          61.8651   85.6700   10.0127 C.ar    1  UNL1        0.0241
      7 C          62.4691   85.6878   11.3855 C.ar    1  UNL1        0.1016
      8 N          62.6751   86.9920   12.0975 N.ar    1  UNL1       -0.1626
      9 N          62.2770   88.2783   11.4365 N.ar    1  UNL1       -0.1935
     10 C          62.8671   84.4015   12.0465 C.ar    1  UNL1        0.0240
     11 C          63.4585   84.4182   13.4249 C.ar    1  UNL1        0.0337
     12 C          63.8565   83.1318   14.0858 C.ar    1  UNL1        0.1697
     13 F          64.4479   83.1485   15.4642 F       1  UNL1       -0.2017
     14 C          63.6632   81.8288   13.3684 C.ar    1  UNL1        0.1946
     15 F          64.0613   80.5424   14.0293 F       1  UNL1       -0.1994
     16 C          63.0718   81.8121   11.9900 C.ar    1  UNL1        0.1697
     17 F          62.8785   80.5091   11.2725 F       1  UNL1       -0.2017
     18 C          62.6738   83.0984   11.3291 C.ar    1  UNL1        0.0337
     19 C          62.8985   90.1853   13.2036 C.3     1  UNL1        0.1560
     20 N          64.3686   90.0960   13.4877 N.pl3   1  UNL1       -0.3252
     21 H          64.8242   89.2239   13.4553 H       1  UNL1        0.1473
     22 C          66.0188   94.3729   10.6179 C.ar    1  UNL1        0.1593
     23 C          65.2427   93.1333   10.2845 C.ar    1  UNL1        0.1357
     24 N          64.9514   92.1209   11.3522 N.ar    1  UNL1       -0.2379
     25 C          65.4360   92.3480   12.7534 C.ar    1  UNL1        0.1122
     26 C          65.1446   91.3356   13.8212 C.ar    1  UNL1        0.0659
     27 C          65.6293   91.5627   15.2224 C.ar    1  UNL1        0.0365
     28 C          66.4053   92.8023   15.5560 C.ar    1  UNL1        0.1002
     29 N          66.6967   93.8147   14.4882 N.ar    1  UNL1       -0.2421
     30 C          66.2120   93.5876   13.0869 C.ar    1  UNL1        0.1032
     31 C          66.5034   94.6000   12.0192 C.ar    1  UNL1        0.0592
     32 C          67.5145   95.2226    8.6710 C.3     1  UNL1        0.2525
     33 O          66.3101   95.3853    9.5502 O.3     1  UNL1       -0.4698
@<TRIPOS>BOND
     1    32    33    1
     2    33    22    1
     3    22    23   ar
     4    23    24   ar
     5    24    25   ar
     6    25    26   ar
     7    26    20    1
     8    20    19    1
     9    19     1    1
    10     1     2   ar
    11     2     3   ar
    12     3     4   ar
    13     4     5   ar
    14     5     6   ar
    15     6     7   ar
    16     7    10    1
    17    10    11   ar
    18    11    12   ar
    19    12    13    1
    20    12    14   ar
    21    14    15    1
    22    14    16   ar
    23    16    17    1
    24    16    18   ar
    25     7     8   ar
    26     8     9   ar
    27    26    27   ar
    28    27    28   ar
    29    28    29   ar
    30    29    30   ar
    31    30    31   ar
    32    31    22   ar
    33    30    25   ar
    34     9     1   ar
    35     9     4   ar
    36    18    10   ar
    37    20    21    1
@<TRIPOS>MOLECULE
*****
 33 37 0 0 0
SMALL
GASTEIGER

@<TRIPOS>ATOM
      1 C          62.7596   90.1444   13.8350 C.ar    1  UNL1        0.1834
      2 N          62.6358   89.7496   15.2768 N.ar    1  UNL1       -0.1298
      3 N          63.7585   90.3964   16.0325 N.ar    1  UNL1       -0.1272
      4 C          64.5763   91.1909   15.0577 C.ar    1  UNL1        0.1864
      5 C          65.8032   92.0360   15.2314 C.ar    1  UNL1        0.0422
      6 C          66.4129   92.7255   14.0468 C.ar    1  UNL1        0.0241
      7 C          65.7955   92.5697   12.6887 C.ar    1  UNL1        0.1016
      8 N          64.5685   91.7245   12.5151 N.ar    1  UNL1       -0.1626
      9 N          63.9589   91.0351   13.6996 N.ar    1  UNL1       -0.1935
     10 C          66.4052   93.2591   11.5042 C.ar    1  UNL1        0.0240
     11 C          67.2926   92.4953   10.5667 C.ar    1  UNL1        0.0337
     12 C          67.9023   93.1847    9.3821 C.ar    1  UNL1        0.1697
     13 F          68.7897   92.4209    8.4446 F       1  UNL1       -0.2017
     14 C          67.6244   94.6379    9.1352 C.ar    1  UNL1        0.1946
     15 F          68.2340   95.3273    7.9506 F       1  UNL1       -0.1994
     16 C          66.7369   95.4017   10.0727 C.ar    1  UNL1        0.1697
     17 F          66.4590   96.8549    9.8258 F       1  UNL1       -0.2017
     18 C          66.1273   94.7123   11.2572 C.ar    1  UNL1        0.0337
     19 C          61.8448   89.7224   12.7236 C.3     1  UNL1        0.1560
     20 N          62.4094   89.3790   11.3770 N.pl3   1  UNL1       -0.3252
     21 H          63.0170   90.0068   10.9233 H       1  UNL1        0.1473
     22 C          63.1613   84.1848   12.6829 C.ar    1  UNL1        0.1593
     23 C          63.5225   85.4848   13.3382 C.ar    1  UNL1        0.1357
     24 N          63.1515   86.7829   12.6845 N.ar    1  UNL1       -0.2379
     25 C          62.4192   86.7809   11.3754 C.ar    1  UNL1        0.1122
     26 C          62.0481   88.0790   10.7217 C.ar    1  UNL1        0.0659
     27 C          61.3158   88.0770    9.4126 C.ar    1  UNL1        0.0365
     28 C          60.9545   86.7770    8.7572 C.ar    1  UNL1        0.1002
     29 N          61.3256   85.4789    9.4110 N.ar    1  UNL1       -0.2421
     30 C          62.0579   85.4809   10.7201 C.ar    1  UNL1        0.1032
     31 C          62.4290   84.1829   11.3739 C.ar    1  UNL1        0.0592
     32 C          62.5791   82.2269   14.2884 C.3     1  UNL1        0.2525
     33 O          63.5323   82.8868   13.3367 O.3     1  UNL1       -0.4698
@<TRIPOS>BOND
     1    32    33    1
     2    33    22    1
     3    22    23   ar
     4    23    24   ar
     5    24    25   ar
     6    25    26   ar
     7    26    20    1
     8    20    19    1
     9    19     1    1
    10     1     2   ar
    11     2     3   ar
    12     3     4   ar
    13     4     5   ar
    14     5     6   ar
    15     6     7   ar
    16     7    10    1
    17    10    11   ar
    18    11    12   ar
    19    12    13    1
    20    12    14   ar
    21    14    15    1
    22    14    16   ar
    23    16    17    1
    24    16    18   ar
    25     7     8   ar
    26     8     9   ar
    27    26    27   ar
    28    27    28   ar
    29    28    29   ar
    30    29    30   ar
    31    30    31   ar
    32    31    22   ar
    33    30    25   ar
    34     9     1   ar
    35     9     4   ar
    36    18    10   ar
    37    20    21    1
@<TRIPOS>MOLECULE
*****
 33 37 0 0 0
SMALL
GASTEIGER

@<TRIPOS>ATOM
      1 C          64.1434   88.7284   14.2725 C.ar    1  UNL1        0.1834
      2 N          64.4663   90.0718   14.8562 N.ar    1  UNL1       -0.1298
      3 N          64.0144   91.1206   13.8837 N.ar    1  UNL1       -0.1272
      4 C          63.4122   90.4253   12.6988 C.ar    1  UNL1        0.1864
      5 C          62.8015   90.9475   11.4322 C.ar    1  UNL1        0.0422
      6 C          62.2705   89.9911   10.4057 C.ar    1  UNL1        0.0241
      7 C          62.3502   88.5127   10.6460 C.ar    1  UNL1        0.1016
      8 N          62.9609   87.9905   11.9127 N.ar    1  UNL1       -0.1626
      9 N          63.4919   88.9469   12.9391 N.ar    1  UNL1       -0.1935
     10 C          61.8193   87.5563    9.6196 C.ar    1  UNL1        0.0240
     11 C          60.4036   87.6811    9.1397 C.ar    1  UNL1        0.0337
     12 C          59.8727   86.7247    8.1132 C.ar    1  UNL1        0.1697
     13 F          58.4571   86.8495    7.6332 F       1  UNL1       -0.2017
     14 C          60.7573   85.6437    7.5669 C.ar    1  UNL1        0.1946
     15 F          60.2264   84.6873    6.5404 F       1  UNL1       -0.1994
     16 C          62.1730   85.5189    8.0468 C.ar    1  UNL1        0.1697
     17 F          63.0577   84.4378    7.5005 F       1  UNL1       -0.2017
     18 C          62.7039   86.4752    9.0732 C.ar    1  UNL1        0.0337
     19 C          64.4228   87.3996   14.9101 C.3     1  UNL1        0.1560
     20 N          64.6071   86.1813   14.0547 N.pl3   1  UNL1       -0.3252
     21 H          65.2861   86.1784   13.3419 H       1  UNL1        0.1473
     22 C          63.3704   81.8459   11.0671 C.ar    1  UNL1        0.1593
     23 C          64.2207   83.0599   10.8364 C.ar    1  UNL1        0.1357
     24 N          64.3495   84.1003   11.9092 N.ar    1  UNL1       -0.2379
     25 C          63.6280   83.9269   13.2127 C.ar    1  UNL1        0.1122
     26 C          63.7567   84.9673   14.2855 C.ar    1  UNL1        0.0659
     27 C          63.0352   84.7939   15.5890 C.ar    1  UNL1        0.0365
     28 C          62.1848   83.5799   15.8198 C.ar    1  UNL1        0.1002
     29 N          62.0560   82.5394   14.7470 N.ar    1  UNL1       -0.2421
     30 C          62.7776   82.7129   13.4434 C.ar    1  UNL1        0.1032
     31 C          62.6489   81.6725   12.3707 C.ar    1  UNL1        0.0592
     32 C          62.8344   79.4067   10.3513 C.3     1  UNL1        0.2525
     33 O          63.2417   80.8055    9.9944 O.3     1  UNL1       -0.4698
@<TRIPOS>BOND
     1    32    33    1
     2    33    22    1
     3    22    23   ar
     4    23    24   ar
     5    24    25   ar
     6    25    26   ar
     7    26    20    1
     8    20    19    1
     9    19     1    1
    10     1     2   ar
    11     2     3   ar
    12     3     4   ar
    13     4     5   ar
    14     5     6   ar
    15     6     7   ar
    16     7    10    1
    17    10    11   ar
    18    11    12   ar
    19    12    13    1
    20    12    14   ar
    21    14    15    1
    22    14    16   ar
    23    16    17    1
    24    16    18   ar
    25     7     8   ar
    26     8     9   ar
    27    26    27   ar
    28    27    28   ar
    29    28    29   ar
    30    29    30   ar
    31    30    31   ar
    32    31    22   ar
    33    30    25   ar
    34     9     1   ar
    35     9     4   ar
    36    18    10   ar
    37    20    21    1
@<TRIPOS>MOLECULE
*****
 33 37 0 0 0
SMALL
GASTEIGER

@<TRIPOS>ATOM
      1 C          64.6060   90.7362   14.1286 C.ar    1  UNL1        0.1834
      2 N          65.4277   91.9841   14.2611 N.ar    1  UNL1       -0.1298
      3 N          65.3580   92.7254   12.9589 N.ar    1  UNL1       -0.1272
      4 C          64.4932   91.9356   12.0216 C.ar    1  UNL1        0.1864
      5 C          64.0690   92.1771   10.6033 C.ar    1  UNL1        0.0422
      6 C          63.1798   91.1892    9.9078 C.ar    1  UNL1        0.0241
      7 C          62.7151   89.9598   10.6308 C.ar    1  UNL1        0.1016
      8 N          63.1393   89.7184   12.0491 N.ar    1  UNL1       -0.1626
      9 N          64.0284   90.7063   12.7445 N.ar    1  UNL1       -0.1935
     10 C          61.8260   88.9720    9.9354 C.ar    1  UNL1        0.0240
     11 C          60.7641   89.4532    8.9916 C.ar    1  UNL1        0.0337
     12 C          59.8750   88.4653    8.2962 C.ar    1  UNL1        0.1697
     13 F          58.8131   88.9465    7.3524 F       1  UNL1       -0.2017
     14 C          60.0478   86.9962    8.5446 C.ar    1  UNL1        0.1946
     15 F          59.1587   86.0082    7.8492 F       1  UNL1       -0.1994
     16 C          61.1097   86.5149    9.4884 C.ar    1  UNL1        0.1697
     17 F          61.2826   85.0457    9.7368 F       1  UNL1       -0.2017
     18 C          61.9988   87.5028   10.1838 C.ar    1  UNL1        0.0337
     19 C          64.3982   89.7001   15.1933 C.3     1  UNL1        0.1560
     20 N          64.5216   88.2436   14.8566 N.pl3   1  UNL1       -0.3252
     21 H          65.1005   87.9575   14.1135 H       1  UNL1        0.1473
     22 C          63.2946   83.0346   14.0749 C.ar    1  UNL1        0.1593
     23 C          64.0533   84.0552   13.2794 C.ar    1  UNL1        0.1357
     24 N          64.2094   85.4513   13.8051 N.ar    1  UNL1       -0.2379
     25 C          63.6068   85.8269   15.1264 C.ar    1  UNL1        0.1122
     26 C          63.7629   87.2231   15.6521 C.ar    1  UNL1        0.0659
     27 C          63.1604   87.5987   16.9734 C.ar    1  UNL1        0.0365
     28 C          62.4017   86.5781   17.7690 C.ar    1  UNL1        0.1002
     29 N          62.2456   85.1820   17.2432 N.ar    1  UNL1       -0.2421
     30 C          62.8482   84.8064   15.9219 C.ar    1  UNL1        0.1032
     31 C          62.6921   83.4103   15.3962 C.ar    1  UNL1        0.0592
     32 C          61.8522   80.8967   13.7612 C.3     1  UNL1        0.2525
     33 O          63.1385   81.6385   13.5491 O.3     1  UNL1       -0.4698
@<TRIPOS>BOND
     1    32    33    1
     2    33    22    1
     3    22    23   ar
     4    23    24   ar
     5    24    25   ar
     6    25    26   ar
     7    26    20    1
     8    20    19    1
     9    19     1    1
    10     1     2   ar
    11     2     3   ar
    12     3     4   ar
    13     4     5   ar
    14     5     6   ar
    15     6     7   ar
    16     7    10    1
    17    10    11   ar
    18    11    12   ar
    19    12    13    1
    20    12    14   ar
    21    14    15    1
    22    14    16   ar
    23    16    17    1
    24    16    18   ar
    25     7     8   ar
    26     8     9   ar
    27    26    27   ar
    28    27    28   ar
    29    28    29   ar
    30    29    30   ar
    31    30    31   ar
    32    31    22   ar
    33    30    25   ar
    34     9     1   ar
    35     9     4   ar
    36    18    10   ar
    37    20    21    1
@<TRIPOS>MOLECULE
*****
 33 37 0 0 0
SMALL
GASTEIGER

@<TRIPOS>ATOM
      1 C          60.5136   89.2606   10.2185 C.ar    1  UNL1        0.1834
      2 N          59.9660   89.4583    8.8361 N.ar    1  UNL1       -0.1298
      3 N          60.1887   88.1919    8.0638 N.ar    1  UNL1       -0.1272
      4 C          60.8739   87.2113    8.9689 C.ar    1  UNL1        0.1864
      5 C          61.3409   85.8025    8.7525 C.ar    1  UNL1        0.0422
      6 C          62.0087   85.0540    9.8678 C.ar    1  UNL1        0.0241
      7 C          62.2095   85.7145   11.1995 C.ar    1  UNL1        0.1016
      8 N          61.7425   87.1235   11.4159 N.ar    1  UNL1       -0.1626
      9 N          61.0747   87.8719   10.3006 N.ar    1  UNL1       -0.1935
     10 C          62.8773   84.9661   12.3148 C.ar    1  UNL1        0.0240
     11 C          63.5028   85.7170   13.4528 C.ar    1  UNL1        0.0337
     12 C          64.1707   84.9685   14.5681 C.ar    1  UNL1        0.1697
     13 F          64.7962   85.7193   15.7060 F       1  UNL1       -0.2017
     14 C          64.2129   83.4693   14.5454 C.ar    1  UNL1        0.1946
     15 F          64.8807   82.7208   15.6608 F       1  UNL1       -0.1994
     16 C          63.5874   82.7185   13.4075 C.ar    1  UNL1        0.1697
     17 F          63.6296   81.2192   13.3848 F       1  UNL1       -0.2017
     18 C          62.9195   83.4669   12.2922 C.ar    1  UNL1        0.0337
     19 C          60.5021   90.2737   11.3247 C.3     1  UNL1        0.1560
     20 N          61.6168   90.3012   12.3281 N.pl3   1  UNL1       -0.3252
     21 H          61.5004   89.8693   13.2051 H       1  UNL1        0.1473
     22 C          65.7884   92.0766   15.2769 C.ar    1  UNL1        0.1593
     23 C          64.4964   91.3911   15.6098 C.ar    1  UNL1        0.1357
     24 N          63.5365   91.0278   14.5159 N.ar    1  UNL1       -0.2379
     25 C          63.8686   91.3500   13.0891 C.ar    1  UNL1        0.1122
     26 C          62.9088   90.9866   11.9952 C.ar    1  UNL1        0.0659
     27 C          63.2409   91.3088   10.5683 C.ar    1  UNL1        0.0365
     28 C          64.5329   91.9943   10.2354 C.ar    1  UNL1        0.1002
     29 N          65.4928   92.3576   11.3293 N.ar    1  UNL1       -0.2421
     30 C          65.1606   92.0354   12.7562 C.ar    1  UNL1        0.1032
     31 C          66.1205   92.3988   13.8501 C.ar    1  UNL1        0.0592
     32 C          68.2264   92.3616   16.1283 C.3     1  UNL1        0.2525
     33 O          66.7482   92.4399   16.3708 O.3     1  UNL1       -0.4698
@<TRIPOS>BOND
     1    32    33    1
     2    33    22    1
     3    22    23   ar
     4    23    24   ar
     5    24    25   ar
     6    25    26   ar
     7    26    20    1
     8    20    19    1
     9    19     1    1
    10     1     2   ar
    11     2     3   ar
    12     3     4   ar
    13     4     5   ar
    14     5     6   ar
    15     6     7   ar
    16     7    10    1
    17    10    11   ar
    18    11    12   ar
    19    12    13    1
    20    12    14   ar
    21    14    15    1
    22    14    16   ar
    23    16    17    1
    24    16    18   ar
    25     7     8   ar
    26     8     9   ar
    27    26    27   ar
    28    27    28   ar
    29    28    29   ar
    30    29    30   ar
    31    30    31   ar
    32    31    22   ar
    33    30    25   ar
    34     9     1   ar
    35     9     4   ar
    36    18    10   ar
    37    20    21    1
@<TRIPOS>MOLECULE
*****
 33 37 0 0 0
SMALL
GASTEIGER

@<TRIPOS>ATOM
      1 C          64.3225   86.9154   14.6177 C.ar    1  UNL1        0.1834
      2 N          65.0110   85.8178   15.3734 N.ar    1  UNL1       -0.1298
      3 N          64.7601   84.5283   14.6492 N.ar    1  UNL1       -0.1272
      4 C          63.9166   84.8291   13.4458 C.ar    1  UNL1        0.1864
      5 C          63.3598   83.9502   12.3654 C.ar    1  UNL1        0.0422
      6 C          62.5325   84.5465   11.2653 C.ar    1  UNL1        0.0241
      7 C          62.2621   86.0218   11.2459 C.ar    1  UNL1        0.1016
      8 N          62.8189   86.9007   12.3264 N.ar    1  UNL1       -0.1626
      9 N          63.6461   86.3043   13.4264 N.ar    1  UNL1       -0.1935
     10 C          61.4348   86.6182   10.1459 C.ar    1  UNL1        0.0240
     11 C          61.0342   88.0624   10.2075 C.ar    1  UNL1        0.0337
     12 C          60.2069   88.6587    9.1074 C.ar    1  UNL1        0.1697
     13 F          59.8063   90.1029    9.1690 F       1  UNL1       -0.2017
     14 C          59.7803   87.8110    7.9459 C.ar    1  UNL1        0.1946
     15 F          58.9530   88.4073    6.8459 F       1  UNL1       -0.1994
     16 C          60.1809   86.3668    7.8843 C.ar    1  UNL1        0.1697
     17 F          59.7544   85.5189    6.7228 F       1  UNL1       -0.2017
     18 C          61.0082   85.7704    8.9843 C.ar    1  UNL1        0.0337
     19 C          64.3121   88.3689   14.9882 C.3     1  UNL1        0.1560
     20 N          63.3520   89.3068   14.3184 N.pl3   1  UNL1       -0.3252
     21 H          62.3910   89.2592   14.5270 H       1  UNL1        0.1473
     22 C          66.9847   93.3057   14.5676 C.ar    1  UNL1        0.1593
     23 C          66.4807   92.2954   15.5551 C.ar    1  UNL1        0.1357
     24 N          65.4378   91.2992   15.1429 N.ar    1  UNL1       -0.2379
     25 C          64.8989   91.3133   13.7431 C.ar    1  UNL1        0.1122
     26 C          63.8560   90.3171   13.3309 C.ar    1  UNL1        0.0659
     27 C          63.3172   90.3312   11.9311 C.ar    1  UNL1        0.0365
     28 C          63.8212   91.3415   10.9435 C.ar    1  UNL1        0.1002
     29 N          64.8641   92.3377   11.3558 N.ar    1  UNL1       -0.2421
     30 C          65.4029   92.3236   12.7556 C.ar    1  UNL1        0.1032
     31 C          66.4458   93.3198   13.1679 C.ar    1  UNL1        0.0592
     32 C          69.0842   93.9147   15.9717 C.3     1  UNL1        0.2525
     33 O          68.0276   94.3019   14.9799 O.3     1  UNL1       -0.4698
@<TRIPOS>BOND
     1    32    33    1
     2    33    22    1
     3    22    23   ar
     4    23    24   ar
     5    24    25   ar
     6    25    26   ar
     7    26    20    1
     8    20    19    1
     9    19     1    1
    10     1     2   ar
    11     2     3   ar
    12     3     4   ar
    13     4     5   ar
    14     5     6   ar
    15     6     7   ar
    16     7    10    1
    17    10    11   ar
    18    11    12   ar
    19    12    13    1
    20    12    14   ar
    21    14    15    1
    22    14    16   ar
    23    16    17    1
    24    16    18   ar
    25     7     8   ar
    26     8     9   ar
    27    26    27   ar
    28    27    28   ar
    29    28    29   ar
    30    29    30   ar
    31    30    31   ar
    32    31    22   ar
    33    30    25   ar
    34     9     1   ar
    35     9     4   ar
    36    18    10   ar
    37    20    21    1
@<TRIPOS>MOLECULE
*****
 33 37 0 0 0
SMALL
GASTEIGER

@<TRIPOS>ATOM
      1 C          64.3411   87.3555   14.6189 C.ar    1  UNL1        0.1834
      2 N          65.0480   86.2870   15.3990 N.ar    1  UNL1       -0.1298
      3 N          64.8034   84.9748   14.7147 N.ar    1  UNL1       -0.1272
      4 C          63.9453   85.2323   13.5117 C.ar    1  UNL1        0.1864
      5 C          63.3871   84.3171   12.4625 C.ar    1  UNL1        0.0422
      6 C          62.5432   84.8732   11.3540 C.ar    1  UNL1        0.0241
      7 C          62.2575   86.3446   11.2948 C.ar    1  UNL1        0.1016
      8 N          62.8157   87.2598   12.3441 N.ar    1  UNL1       -0.1626
      9 N          63.6595   86.7036   13.4525 N.ar    1  UNL1       -0.1935
     10 C          61.4137   86.9007   10.1864 C.ar    1  UNL1        0.0240
     11 C          61.0564   88.3575   10.1744 C.ar    1  UNL1        0.0337
     12 C          60.2125   88.9136    9.0659 C.ar    1  UNL1        0.1697
     13 F          59.8553   90.3703    9.0539 F       1  UNL1       -0.2017
     14 C          59.7259   88.0130    7.9696 C.ar    1  UNL1        0.1946
     15 F          58.8820   88.5691    6.8611 F       1  UNL1       -0.1994
     16 C          60.0832   86.5562    7.9816 C.ar    1  UNL1        0.1697
     17 F          59.5966   85.6554    6.8853 F       1  UNL1       -0.2017
     18 C          60.9270   86.0001    9.0900 C.ar    1  UNL1        0.0337
     19 C          64.3195   88.8189   14.9476 C.3     1  UNL1        0.1560
     20 N          64.4428   89.8356   13.8516 N.pl3   1  UNL1       -0.3252
     21 H          64.0302   89.6658   12.9740 H       1  UNL1        0.1473
     22 C          65.8446   94.0127   10.7153 C.ar    1  UNL1        0.1593
     23 C          65.0927   92.7375   10.4742 C.ar    1  UNL1        0.1357
     24 N          64.8761   91.7702   11.6000 N.ar    1  UNL1       -0.2379
     25 C          65.4113   92.0782   12.9669 C.ar    1  UNL1        0.1122
     26 C          65.1947   91.1109   14.0927 C.ar    1  UNL1        0.0659
     27 C          65.7300   91.4189   15.4596 C.ar    1  UNL1        0.0365
     28 C          66.4820   92.6942   15.7008 C.ar    1  UNL1        0.1002
     29 N          66.6986   93.6615   14.5750 N.ar    1  UNL1       -0.2421
     30 C          66.1633   93.3535   13.2080 C.ar    1  UNL1        0.1032
     31 C          66.3799   94.3208   12.0822 C.ar    1  UNL1        0.0592
     32 C          67.4255   95.1347    8.9856 C.3     1  UNL1        0.2525
     33 O          66.0612   94.9800    9.5895 O.3     1  UNL1       -0.4698
@<TRIPOS>BOND
     1    32    33    1
     2    33    22    1
     3    22    23   ar
     4    23    24   ar
     5    24    25   ar
     6    25    26   ar
     7    26    20    1
     8    20    19    1
     9    19     1    1
    10     1     2   ar
    11     2     3   ar
    12     3     4   ar
    13     4     5   ar
    14     5     6   ar
    15     6     7   ar
    16     7    10    1
    17    10    11   ar
    18    11    12   ar
    19    12    13    1
    20    12    14   ar
    21    14    15    1
    22    14    16   ar
    23    16    17    1
    24    16    18   ar
    25     7     8   ar
    26     8     9   ar
    27    26    27   ar
    28    27    28   ar
    29    28    29   ar
    30    29    30   ar
    31    30    31   ar
    32    31    22   ar
    33    30    25   ar
    34     9     1   ar
    35     9     4   ar
    36    18    10   ar
    37    20    21    1
@<TRIPOS>MOLECULE
*****
 33 37 0 0 0
SMALL
GASTEIGER

@<TRIPOS>ATOM
      1 C          63.7108   88.2102   15.6453 C.ar    1  UNL1        0.1834
      2 N          63.4176   88.6105   17.0609 N.ar    1  UNL1       -0.1298
      3 N          62.8942   87.4053   17.7845 N.ar    1  UNL1       -0.1272
      4 C          62.8640   86.2601   16.8161 C.ar    1  UNL1        0.1864
      5 C          62.4421   84.8287   16.9674 C.ar    1  UNL1        0.0422
      6 C          62.5249   83.8946   15.7966 C.ar    1  UNL1        0.0241
      7 C          63.0296   84.3920   14.4746 C.ar    1  UNL1        0.1016
      8 N          63.4515   85.8235   14.3233 N.ar    1  UNL1       -0.1626
      9 N          63.3687   86.7575   15.4941 N.ar    1  UNL1       -0.1935
     10 C          63.1124   83.4580   13.3038 C.ar    1  UNL1        0.0240
     11 C          63.5355   83.9747   11.9607 C.ar    1  UNL1        0.0337
     12 C          63.6183   83.0405   10.7899 C.ar    1  UNL1        0.1697
     13 F          64.0413   83.5572    9.4467 F       1  UNL1       -0.2017
     14 C          63.2781   81.5899   10.9623 C.ar    1  UNL1        0.1946
     15 F          63.3609   80.6558    9.7915 F       1  UNL1       -0.1994
     16 C          62.8550   81.0733   12.3054 C.ar    1  UNL1        0.1697
     17 F          62.5148   79.6225   12.4779 F       1  UNL1       -0.2017
     18 C          62.7722   82.0073   13.4762 C.ar    1  UNL1        0.0337
     19 C          64.2513   89.1053   14.5698 C.3     1  UNL1        0.1560
     20 N          63.4709   90.3100   14.1342 N.pl3   1  UNL1       -0.3252
     21 H          62.9566   90.8284   14.7945 H       1  UNL1        0.1473
     22 C          66.3120   93.9167   11.2760 C.ar    1  UNL1        0.1593
     23 C          66.3088   93.5020   12.7175 C.ar    1  UNL1        0.1357
     24 N          65.3628   92.4380   13.1897 N.ar    1  UNL1       -0.2379
     25 C          64.4200   91.7887   12.2205 C.ar    1  UNL1        0.1122
     26 C          63.4741   90.7247   12.6927 C.ar    1  UNL1        0.0659
     27 C          62.5313   90.0754   11.7235 C.ar    1  UNL1        0.0365
     28 C          62.5344   90.4901   10.2819 C.ar    1  UNL1        0.1002
     29 N          63.4804   91.5541    9.8097 N.ar    1  UNL1       -0.2421
     30 C          64.4232   92.2034   10.7790 C.ar    1  UNL1        0.1032
     31 C          65.3692   93.2674   10.3068 C.ar    1  UNL1        0.0592
     32 C          67.2603   95.3963    9.3625 C.3     1  UNL1        0.2525
     33 O          67.2579   94.9808   10.8038 O.3     1  UNL1       -0.4698
@<TRIPOS>BOND
     1    32    33    1
     2    33    22    1
     3    22    23   ar
     4    23    24   ar
     5    24    25   ar
     6    25    26   ar
     7    26    20    1
     8    20    19    1
     9    19     1    1
    10     1     2   ar
    11     2     3   ar
    12     3     4   ar
    13     4     5   ar
    14     5     6   ar
    15     6     7   ar
    16     7    10    1
    17    10    11   ar
    18    11    12   ar
    19    12    13    1
    20    12    14   ar
    21    14    15    1
    22    14    16   ar
    23    16    17    1
    24    16    18   ar
    25     7     8   ar
    26     8     9   ar
    27    26    27   ar
    28    27    28   ar
    29    28    29   ar
    30    29    30   ar
    31    30    31   ar
    32    31    22   ar
    33    30    25   ar
    34     9     1   ar
    35     9     4   ar
    36    18    10   ar
    37    20    21    1
@<TRIPOS>MOLECULE
*****
 33 37 0 0 0
SMALL
GASTEIGER

@<TRIPOS>ATOM
      1 C          64.2281   83.3987   12.4581 C.ar    1  UNL1        0.1834
      2 N          64.7470   82.2340   11.6681 N.ar    1  UNL1       -0.1298
      3 N          64.4022   82.4615   10.2261 N.ar    1  UNL1       -0.1272
      4 C          63.6702   83.7669   10.1249 C.ar    1  UNL1        0.1864
      5 C          63.0878   84.5030    8.9549 C.ar    1  UNL1        0.0422
      6 C          62.3978   85.8183    9.1643 C.ar    1  UNL1        0.0241
      7 C          62.2902   86.3975   10.5438 C.ar    1  UNL1        0.1016
      8 N          62.8726   85.6614   11.7138 N.ar    1  UNL1       -0.1626
      9 N          63.5626   84.3461   11.5044 N.ar    1  UNL1       -0.1935
     10 C          61.6001   87.7128   10.7532 C.ar    1  UNL1        0.0240
     11 C          60.2534   87.7566   11.4122 C.ar    1  UNL1        0.0337
     12 C          59.5634   89.0720   11.6217 C.ar    1  UNL1        0.1697
     13 F          58.2166   89.1158   12.2807 F       1  UNL1       -0.2017
     14 C          60.2201   90.3433   11.1721 C.ar    1  UNL1        0.1946
     15 F          59.5301   91.6587   11.3816 F       1  UNL1       -0.1994
     16 C          61.5669   90.2995   10.5131 C.ar    1  UNL1        0.1697
     17 F          62.2237   91.5710   10.0635 F       1  UNL1       -0.2017
     18 C          62.2569   88.9842   10.3037 C.ar    1  UNL1        0.0337
     19 C          64.3528   83.5836   13.9415 C.3     1  UNL1        0.1560
     20 N          64.7869   84.9070   14.4985 N.pl3   1  UNL1       -0.3252
     21 H          65.6386   85.3073   14.2092 H       1  UNL1        0.1473
     22 C          63.8257   90.1187   15.5773 C.ar    1  UNL1        0.1593
     23 C          64.6892   89.4052   14.5797 C.ar    1  UNL1        0.1357
     24 N          64.7217   87.9058   14.5526 N.ar    1  UNL1       -0.2379
     25 C          63.8908   87.1199   15.5231 C.ar    1  UNL1        0.1122
     26 C          63.9234   85.6205   15.4960 C.ar    1  UNL1        0.0659
     27 C          63.0924   84.8347   16.4665 C.ar    1  UNL1        0.0365
     28 C          62.2288   85.5482   17.4641 C.ar    1  UNL1        0.1002
     29 N          62.1963   87.0476   17.4912 N.ar    1  UNL1       -0.2421
     30 C          63.0273   87.8335   16.5207 C.ar    1  UNL1        0.1032
     31 C          62.9947   89.3329   16.5478 C.ar    1  UNL1        0.0592
     32 C          64.7162   92.3720   16.5151 C.3     1  UNL1        0.2525
     33 O          63.7931   91.6181   15.6044 O.3     1  UNL1       -0.4698
@<TRIPOS>BOND
     1    32    33    1
     2    33    22    1
     3    22    23   ar
     4    23    24   ar
     5    24    25   ar
     6    25    26   ar
     7    26    20    1
     8    20    19    1
     9    19     1    1
    10     1     2   ar
    11     2     3   ar
    12     3     4   ar
    13     4     5   ar
    14     5     6   ar
    15     6     7   ar
    16     7    10    1
    17    10    11   ar
    18    11    12   ar
    19    12    13    1
    20    12    14   ar
    21    14    15    1
    22    14    16   ar
    23    16    17    1
    24    16    18   ar
    25     7     8   ar
    26     8     9   ar
    27    26    27   ar
    28    27    28   ar
    29    28    29   ar
    30    29    30   ar
    31    30    31   ar
    32    31    22   ar
    33    30    25   ar
    34     9     1   ar
    35     9     4   ar
    36    18    10   ar
    37    20    21    1
