@<TRIPOS>MOLECULE
*****
 30 34 0 0 0
SMALL
GASTEIGER

@<TRIPOS>ATOM
      1 C          62.8377   84.4680   14.9668 C.ar    1  UNL1        0.1856
      2 N          62.2617   84.3053   16.3422 N.ar    1  UNL1       -0.1274
      3 N          62.3449   85.6309   17.0393 N.ar    1  UNL1       -0.1316
      4 C          62.9723   86.6128   16.0947 C.ar    1  UNL1        0.1615
      5 N          63.2769   85.8941   14.8138 N.ar    1  UNL1       -0.2944
      6 C          63.9147   86.6311   13.6737 C.3     1  UNL1        0.1302
      7 C          64.2481   88.0869   13.8144 C.3     1  UNL1        0.1186
      8 N          63.9435   88.8056   15.0953 N.am    1  UNL1       -0.2688
      9 C          64.2768   90.2613   15.2361 C.2     1  UNL1        0.2493
     10 O          63.9722   90.9800   16.5170 O.2     1  UNL1       -0.2699
     11 C          63.3056   88.0685   16.2355 C.3     1  UNL1        0.1343
     12 C          63.0010   88.7872   17.5164 C.3     1  UNL1        0.0298
     13 C          64.2810   82.9425   10.2139 C.3     1  UNL1        0.0538
     14 C          63.6758   82.6305   11.5504 C.ar    1  UNL1        0.0786
     15 C          63.1869   81.2438   11.8470 C.ar    1  UNL1        0.1136
     16 N          62.5817   80.9318   13.1835 N.ar    1  UNL1       -0.2394
     17 C          62.4653   82.0066   14.2234 C.ar    1  UNL1        0.1210
     18 C          62.9541   83.3933   13.9268 C.ar    1  UNL1        0.1358
     19 N          63.5594   83.7053   12.5903 N.ar    1  UNL1       -0.2434
     20 C          64.9146   90.9982   14.0959 C.ar    1  UNL1        0.0536
     21 C          64.1243   91.2883   12.8545 C.ar    1  UNL1        0.0045
     22 C          64.7622   92.0253   11.7143 C.ar    1  UNL1        0.0006
     23 C          66.1905   92.4722   11.8156 C.ar    1  UNL1        0.0060
     24 C          66.9808   92.1822   13.0571 C.ar    1  UNL1        0.0006
     25 C          66.3430   91.4452   14.1972 C.ar    1  UNL1        0.0045
     26 C          66.8284   93.2093   10.6755 C.ar    1  UNL1        0.0295
     27 C          67.8113   92.6386    9.6966 C.ar    1  UNL1        0.0070
     28 C          68.1858   93.7230    8.7302 C.ar    1  UNL1        0.0075
     29 C          67.4343   94.9639    9.1118 C.ar    1  UNL1        0.0354
     30 S          66.5953   94.6463   10.3142 S.2     1  UNL1       -0.0864
@<TRIPOS>BOND
     1    13    14    1
     2    14    15   ar
     3    15    16   ar
     4    16    17   ar
     5    17    18   ar
     6    18     1    1
     7     1     2   ar
     8     2     3   ar
     9     3     4   ar
    10     4     5   ar
    11     5     6    1
    12     6     7    1
    13     7     8    1
    14     8     9   am
    15     9    10    2
    16     9    20    1
    17    20    21   ar
    18    21    22   ar
    19    22    23   ar
    20    23    26    1
    21    26    27   ar
    22    27    28   ar
    23    28    29   ar
    24    29    30   ar
    25    23    24   ar
    26    24    25   ar
    27     8    11    1
    28    11    12    1
    29    18    19   ar
    30    19    14   ar
    31     5     1   ar
    32    25    20   ar
    33    11     4    1
    34    30    26   ar
@<TRIPOS>MOLECULE
*****
 30 34 0 0 0
SMALL
GASTEIGER

@<TRIPOS>ATOM
      1 C          64.0881   90.8909   14.2900 C.ar    1  UNL1        0.1856
      2 N          63.9481   91.5144   15.6471 N.ar    1  UNL1       -0.1274
      3 N          63.6014   90.4287   16.6224 N.ar    1  UNL1       -0.1316
      4 C          63.5271   89.1343   15.8681 C.ar    1  UNL1        0.1615
      5 N          63.8279   89.4200   14.4266 N.ar    1  UNL1       -0.2944
      6 C          63.8261   88.3038   13.4245 C.3     1  UNL1        0.1302
      7 C          63.5234   86.9019   13.8640 C.3     1  UNL1        0.1186
      8 N          63.2226   86.6162   15.3055 N.am    1  UNL1       -0.2688
      9 C          62.9199   85.2144   15.7450 C.2     1  UNL1        0.2493
     10 O          62.6191   84.9287   17.1865 O.2     1  UNL1       -0.2699
     11 C          63.2244   87.7325   16.3075 C.3     1  UNL1        0.1343
     12 C          62.9236   87.4468   17.7490 C.3     1  UNL1        0.0298
     13 C          66.6045   94.7046   11.8155 C.3     1  UNL1        0.0538
     14 C          65.6867   93.5187   11.7821 C.ar    1  UNL1        0.0786
     15 C          65.1093   93.0536   10.4782 C.ar    1  UNL1        0.1136
     16 N          64.1915   91.8677   10.4448 N.ar    1  UNL1       -0.2394
     17 C          63.8511   91.1468   11.7155 C.ar    1  UNL1        0.1210
     18 C          64.4285   91.6119   13.0194 C.ar    1  UNL1        0.1358
     19 N          65.3463   92.7978   13.0528 N.ar    1  UNL1       -0.2434
     20 C          62.9180   84.0982   14.7429 C.ar    1  UNL1        0.0536
     21 C          63.8403   84.1498   13.5611 C.ar    1  UNL1        0.0045
     22 C          63.8384   83.0335   12.5590 C.ar    1  UNL1        0.0006
     23 C          62.9143   81.8658   12.7389 C.ar    1  UNL1        0.0060
     24 C          61.9921   81.8142   13.9207 C.ar    1  UNL1        0.0006
     25 C          61.9939   82.9304   14.9228 C.ar    1  UNL1        0.0045
     26 C          62.9124   80.7495   11.7368 C.ar    1  UNL1        0.0295
     27 C          63.2082   80.8791   10.2720 C.ar    1  UNL1        0.0070
     28 C          63.0930   79.5174    9.6536 C.ar    1  UNL1        0.0075
     29 C          62.7260   78.5461   10.7363 C.ar    1  UNL1        0.0354
     30 S          62.6144   79.3077   12.0238 S.2     1  UNL1       -0.0864
@<TRIPOS>BOND
     1    13    14    1
     2    14    15   ar
     3    15    16   ar
     4    16    17   ar
     5    17    18   ar
     6    18     1    1
     7     1     2   ar
     8     2     3   ar
     9     3     4   ar
    10     4     5   ar
    11     5     6    1
    12     6     7    1
    13     7     8    1
    14     8     9   am
    15     9    10    2
    16     9    20    1
    17    20    21   ar
    18    21    22   ar
    19    22    23   ar
    20    23    26    1
    21    26    27   ar
    22    27    28   ar
    23    28    29   ar
    24    29    30   ar
    25    23    24   ar
    26    24    25   ar
    27     8    11    1
    28    11    12    1
    29    18    19   ar
    30    19    14   ar
    31     5     1   ar
    32    25    20   ar
    33    11     4    1
    34    30    26   ar
