@<TRIPOS>MOLECULE
*****
 28 31 0 0 0
SMALL
GASTEIGER

@<TRIPOS>ATOM
      1 C          62.9318   90.0482   12.3009 C.ar    1  UNL1        0.0989
      2 C          63.9509   91.1002   11.9775 C.ar    1  UNL1        0.1006
      3 N          64.7733   91.7100   13.0738 N.ar    1  UNL1       -0.2861
      4 C          65.8452   92.7591   13.0594 C.ar    1  UNL1        0.0846
      5 C          66.3110   92.9653   14.4703 C.ar    1  UNL1        0.1180
      6 N          65.5270   92.0435   15.3566 N.ar    1  UNL1       -0.2233
      7 C          64.5766   91.2677   14.4935 C.ar    1  UNL1        0.1672
      8 C          63.5575   90.2156   14.8170 C.ar    1  UNL1        0.1361
      9 N          62.7351   89.6059   13.7207 N.ar    1  UNL1       -0.2392
     10 C          66.3608   93.4762   11.8470 C.ar    1  UNL1        0.0179
     11 C          67.0423   92.7075   10.7541 C.ar    1  UNL1        0.0046
     12 C          67.5579   93.4246    9.5417 C.ar    1  UNL1        0.0367
     13 C          67.3920   94.9106    9.4222 C.ar    1  UNL1        0.1337
     14 O          67.9076   95.6277    8.2098 O.3     1  UNL1       -0.5055
     15 C          66.7105   95.6794   10.5151 C.ar    1  UNL1        0.0367
     16 C          66.1949   94.9623   11.7275 C.ar    1  UNL1        0.0046
     17 H          68.3333   95.1474    7.5271 H       1  UNL1        0.2922
     18 C          60.4645   88.2189    9.0121 C.ar    1  UNL1        0.0531
     19 C          61.5829   87.4366    9.6344 C.ar    1  UNL1        0.0046
     20 C          62.4053   88.0464   10.7307 C.ar    1  UNL1        0.0017
     21 C          62.1094   89.4384   11.2046 C.ar    1  UNL1        0.0191
     22 C          60.9910   90.2207   10.5823 C.ar    1  UNL1        0.0017
     23 C          60.1686   89.6110    9.4861 C.ar    1  UNL1        0.0046
     24 N          58.7875   88.4820    7.0454 N.am    1  UNL1       -0.3253
     25 C          59.6421   87.6091    7.9158 C.2     1  UNL1        0.2427
     26 O          59.6743   86.1266    7.6900 O.2     1  UNL1       -0.2704
     27 H          58.2477   88.0818    6.3259 H       1  UNL1        0.1453
     28 H          58.7663   89.4550    7.1936 H       1  UNL1        0.1453
@<TRIPOS>BOND
     1    24    25   am
     2    25    26    2
     3    25    18    1
     4    18    19   ar
     5    19    20   ar
     6    20    21   ar
     7    21     1    1
     8     1     2   ar
     9     2     3   ar
    10     3     4   ar
    11     4    10    1
    12    10    11   ar
    13    11    12   ar
    14    12    13   ar
    15    13    14    1
    16    13    15   ar
    17    15    16   ar
    18     4     5   ar
    19     5     6   ar
    20     6     7   ar
    21     7     8   ar
    22     8     9   ar
    23    21    22   ar
    24    22    23   ar
    25    23    18   ar
    26     9     1   ar
    27     7     3   ar
    28    16    10   ar
    29    24    27    1
    30    24    28    1
    31    14    17    1
@<TRIPOS>MOLECULE
*****
 28 31 0 0 0
SMALL
GASTEIGER

@<TRIPOS>ATOM
      1 C          62.7796   90.0242   11.6347 C.ar    1  UNL1        0.0989
      2 C          62.8448   88.5390   11.4349 C.ar    1  UNL1        0.1006
      3 N          61.8234   87.8521   10.5776 N.ar    1  UNL1       -0.2861
      4 C          61.6341   86.4127   10.2003 C.ar    1  UNL1        0.0846
      5 C          60.4306   86.3214    9.3096 C.ar    1  UNL1        0.1180
      6 N          59.8761   87.7043    9.1365 N.ar    1  UNL1       -0.2233
      7 C          60.7369   88.6504    9.9201 C.ar    1  UNL1        0.1672
      8 C          60.6718   90.1355   10.1200 C.ar    1  UNL1        0.1361
      9 N          61.6931   90.8224   10.9772 N.ar    1  UNL1       -0.2392
     10 C          62.4969   85.2660   10.6370 C.ar    1  UNL1        0.0179
     11 C          63.2636   84.4743    9.6196 C.ar    1  UNL1        0.0046
     12 C          64.1264   83.3276   10.0563 C.ar    1  UNL1        0.0367
     13 C          64.2224   82.9725   11.5105 C.ar    1  UNL1        0.1337
     14 O          65.0852   81.8258   11.9472 O.3     1  UNL1       -0.5055
     15 C          63.4557   83.7642   12.5280 C.ar    1  UNL1        0.0367
     16 C          62.5929   84.9110   12.0913 C.ar    1  UNL1        0.0046
     17 H          65.5641   81.3313   11.3115 H       1  UNL1        0.2922
     18 C          65.8437   92.0850   14.2066 C.ar    1  UNL1        0.0531
     19 C          65.6181   92.5431   12.7962 C.ar    1  UNL1        0.0046
     20 C          64.5967   91.8561   11.9389 C.ar    1  UNL1        0.0017
     21 C          63.8010   90.7111   12.4920 C.ar    1  UNL1        0.0191
     22 C          64.0266   90.2531   13.9024 C.ar    1  UNL1        0.0017
     23 C          65.0480   90.9400   14.7597 C.ar    1  UNL1        0.0046
     24 N          66.5471   93.0988   16.4929 N.am    1  UNL1       -0.3253
     25 C          66.8650   92.7719   15.0639 C.2     1  UNL1        0.2427
     26 O          68.2042   93.1320   14.4923 O.2     1  UNL1       -0.2704
     27 H          67.2174   93.5496   17.0557 H       1  UNL1        0.1453
     28 H          65.6681   92.8624   16.8681 H       1  UNL1        0.1453
@<TRIPOS>BOND
     1    24    25   am
     2    25    26    2
     3    25    18    1
     4    18    19   ar
     5    19    20   ar
     6    20    21   ar
     7    21     1    1
     8     1     2   ar
     9     2     3   ar
    10     3     4   ar
    11     4    10    1
    12    10    11   ar
    13    11    12   ar
    14    12    13   ar
    15    13    14    1
    16    13    15   ar
    17    15    16   ar
    18     4     5   ar
    19     5     6   ar
    20     6     7   ar
    21     7     8   ar
    22     8     9   ar
    23    21    22   ar
    24    22    23   ar
    25    23    18   ar
    26     9     1   ar
    27     7     3   ar
    28    16    10   ar
    29    24    27    1
    30    24    28    1
    31    14    17    1
@<TRIPOS>MOLECULE
*****
 28 31 0 0 0
SMALL
GASTEIGER

@<TRIPOS>ATOM
      1 C          63.6906   87.1542   14.7644 C.ar    1  UNL1        0.0989
      2 C          64.1974   88.4529   14.2107 C.ar    1  UNL1        0.1006
      3 N          64.1491   89.6955   15.0494 N.ar    1  UNL1       -0.2861
      4 C          64.5724   91.1083   14.7756 C.ar    1  UNL1        0.0846
      5 C          64.2789   91.9255   15.9988 C.ar    1  UNL1        0.1180
      6 N          63.6742   91.0177   17.0285 N.ar    1  UNL1       -0.2233
      7 C          63.5939   89.6396   16.4417 C.ar    1  UNL1        0.1672
      8 C          63.0871   88.3409   16.9954 C.ar    1  UNL1        0.1361
      9 N          63.1354   87.0983   16.1567 N.ar    1  UNL1       -0.2392
     10 C          65.1822   91.6149   13.5022 C.ar    1  UNL1        0.0179
     11 C          64.3520   91.7031   12.2562 C.ar    1  UNL1        0.0046
     12 C          64.9618   92.2097   10.9828 C.ar    1  UNL1        0.0367
     13 C          66.4019   92.6282   10.9555 C.ar    1  UNL1        0.1337
     14 O          67.0117   93.1348    9.6821 O.3     1  UNL1       -0.5055
     15 C          67.2323   92.5401   12.2016 C.ar    1  UNL1        0.0367
     16 C          66.6225   92.0335   13.4750 C.ar    1  UNL1        0.0046
     17 H          66.4930   93.1899    8.9037 H       1  UNL1        0.2922
     18 C          63.8355   83.4261   12.2483 C.ar    1  UNL1        0.0531
     19 C          64.5865   83.4852   13.5454 C.ar    1  UNL1        0.0046
     20 C          64.5382   84.7279   14.3841 C.ar    1  UNL1        0.0017
     21 C          63.7389   85.9115   13.9257 C.ar    1  UNL1        0.0191
     22 C          62.9879   85.8524   12.6285 C.ar    1  UNL1        0.0017
     23 C          63.0362   84.6098   11.7899 C.ar    1  UNL1        0.0046
     24 N          63.0908   80.9756   11.8124 N.am    1  UNL1       -0.3253
     25 C          63.8838   82.1834   11.4096 C.2     1  UNL1        0.2427
     26 O          64.7250   82.1487   10.1682 O.2     1  UNL1       -0.2704
     27 H          63.1225   80.1600   11.2619 H       1  UNL1        0.1453
     28 H          62.5387   80.9984   12.6272 H       1  UNL1        0.1453
@<TRIPOS>BOND
     1    24    25   am
     2    25    26    2
     3    25    18    1
     4    18    19   ar
     5    19    20   ar
     6    20    21   ar
     7    21     1    1
     8     1     2   ar
     9     2     3   ar
    10     3     4   ar
    11     4    10    1
    12    10    11   ar
    13    11    12   ar
    14    12    13   ar
    15    13    14    1
    16    13    15   ar
    17    15    16   ar
    18     4     5   ar
    19     5     6   ar
    20     6     7   ar
    21     7     8   ar
    22     8     9   ar
    23    21    22   ar
    24    22    23   ar
    25    23    18   ar
    26     9     1   ar
    27     7     3   ar
    28    16    10   ar
    29    24    27    1
    30    24    28    1
    31    14    17    1
@<TRIPOS>MOLECULE
*****
 28 31 0 0 0
SMALL
GASTEIGER

@<TRIPOS>ATOM
      1 C          61.9296   89.4022   10.4600 C.ar    1  UNL1        0.0989
      2 C          61.2549   89.7251    9.1599 C.ar    1  UNL1        0.1006
      3 N          60.2475   88.7760    8.5817 N.ar    1  UNL1       -0.2861
      4 C          59.4266   88.8252    7.3272 C.ar    1  UNL1        0.0846
      5 C          58.5866   87.5836    7.2739 C.ar    1  UNL1        0.1180
      6 N          58.8883   86.7671    8.4954 N.ar    1  UNL1       -0.2233
      7 C          59.9148   87.5040    9.3037 C.ar    1  UNL1        0.1672
      8 C          60.5895   87.1810   10.6039 C.ar    1  UNL1        0.1361
      9 N          61.5969   88.1301   11.1820 N.ar    1  UNL1       -0.2392
     10 C          59.4429   89.9232    6.3055 C.ar    1  UNL1        0.0179
     11 C          60.7355   90.3304    5.6626 C.ar    1  UNL1        0.0046
     12 C          60.7518   91.4284    4.6408 C.ar    1  UNL1        0.0367
     13 C          59.4754   92.1194    4.2619 C.ar    1  UNL1        0.1337
     14 O          59.4918   93.2174    3.2401 O.3     1  UNL1       -0.5055
     15 C          58.1828   91.7123    4.9048 C.ar    1  UNL1        0.0367
     16 C          58.1665   90.6142    5.9266 C.ar    1  UNL1        0.0046
     17 H          60.2992   93.4717    2.8385 H       1  UNL1        0.2922
     18 C          64.9520   92.2495   12.1946 C.ar    1  UNL1        0.0531
     19 C          64.3370   91.1898   13.0599 C.ar    1  UNL1        0.0046
     20 C          63.3296   90.2407   12.4817 C.ar    1  UNL1        0.0017
     21 C          62.9371   90.3513   11.0382 C.ar    1  UNL1        0.0191
     22 C          63.5520   91.4110   10.1729 C.ar    1  UNL1        0.0017
     23 C          64.5595   92.3601   10.7510 C.ar    1  UNL1        0.0046
     24 N          66.8666   93.9742   11.8643 N.am    1  UNL1       -0.3253
     25 C          65.9594   93.1986   12.7727 C.2     1  UNL1        0.2427
     26 O          66.0596   93.3720   14.2593 O.2     1  UNL1       -0.2704
     27 H          67.5278   94.5972   12.2437 H       1  UNL1        0.1453
     28 H          66.8008   93.8604   10.8886 H       1  UNL1        0.1453
@<TRIPOS>BOND
     1    24    25   am
     2    25    26    2
     3    25    18    1
     4    18    19   ar
     5    19    20   ar
     6    20    21   ar
     7    21     1    1
     8     1     2   ar
     9     2     3   ar
    10     3     4   ar
    11     4    10    1
    12    10    11   ar
    13    11    12   ar
    14    12    13   ar
    15    13    14    1
    16    13    15   ar
    17    15    16   ar
    18     4     5   ar
    19     5     6   ar
    20     6     7   ar
    21     7     8   ar
    22     8     9   ar
    23    21    22   ar
    24    22    23   ar
    25    23    18   ar
    26     9     1   ar
    27     7     3   ar
    28    16    10   ar
    29    24    27    1
    30    24    28    1
    31    14    17    1
@<TRIPOS>MOLECULE
*****
 28 31 0 0 0
SMALL
GASTEIGER

@<TRIPOS>ATOM
      1 C          62.1793   86.3627   10.8810 C.ar    1  UNL1        0.0989
      2 C          62.6595   87.0736   12.1114 C.ar    1  UNL1        0.1006
      3 N          63.4316   86.3249   13.1570 N.ar    1  UNL1       -0.2861
      4 C          64.0290   86.7551   14.4638 C.ar    1  UNL1        0.0846
      5 C          64.6901   85.5614   15.0867 C.ar    1  UNL1        0.1180
      6 N          64.5013   84.3934   14.1648 N.ar    1  UNL1       -0.2233
      7 C          63.7234   84.8652   12.9721 C.ar    1  UNL1        0.1672
      8 C          63.2432   84.1543   11.7417 C.ar    1  UNL1        0.1361
      9 N          62.4711   84.9030   10.6962 N.ar    1  UNL1       -0.2392
     10 C          63.9749   88.1366   15.0457 C.ar    1  UNL1        0.0179
     11 C          64.5999   89.2851   14.3107 C.ar    1  UNL1        0.0046
     12 C          64.5458   90.6666   14.8926 C.ar    1  UNL1        0.0367
     13 C          63.8665   90.8996   16.2095 C.ar    1  UNL1        0.1337
     14 O          63.8124   92.2811   16.7913 O.3     1  UNL1       -0.5055
     15 C          63.2414   89.7512   16.9445 C.ar    1  UNL1        0.0367
     16 C          63.2956   88.3697   16.3627 C.ar    1  UNL1        0.0046
     17 H          64.2029   92.9985   16.3321 H       1  UNL1        0.2922
     18 C          59.8630   88.6089    7.7442 C.ar    1  UNL1        0.0531
     19 C          59.9335   87.1114    7.6957 C.ar    1  UNL1        0.0046
     20 C          60.7056   86.3626    8.7413 C.ar    1  UNL1        0.0017
     21 C          61.4072   87.1114    9.8354 C.ar    1  UNL1        0.0191
     22 C          61.3367   88.6090    9.8839 C.ar    1  UNL1        0.0017
     23 C          60.5646   89.3578    8.8383 C.ar    1  UNL1        0.0046
     24 N          59.8090   90.2568    5.7364 N.am    1  UNL1       -0.3253
     25 C          59.0909   89.3577    6.6986 C.2     1  UNL1        0.2427
     26 O          57.6008   89.2073    6.6153 O.2     1  UNL1       -0.2704
     27 H          59.3023   90.7483    5.0501 H       1  UNL1        0.1453
     28 H          60.7870   90.3555    5.7911 H       1  UNL1        0.1453
@<TRIPOS>BOND
     1    24    25   am
     2    25    26    2
     3    25    18    1
     4    18    19   ar
     5    19    20   ar
     6    20    21   ar
     7    21     1    1
     8     1     2   ar
     9     2     3   ar
    10     3     4   ar
    11     4    10    1
    12    10    11   ar
    13    11    12   ar
    14    12    13   ar
    15    13    14    1
    16    13    15   ar
    17    15    16   ar
    18     4     5   ar
    19     5     6   ar
    20     6     7   ar
    21     7     8   ar
    22     8     9   ar
    23    21    22   ar
    24    22    23   ar
    25    23    18   ar
    26     9     1   ar
    27     7     3   ar
    28    16    10   ar
    29    24    27    1
    30    24    28    1
    31    14    17    1
@<TRIPOS>MOLECULE
*****
 28 31 0 0 0
SMALL
GASTEIGER

@<TRIPOS>ATOM
      1 C          61.9927   86.0469   11.0911 C.ar    1  UNL1        0.0989
      2 C          62.6274   87.3103   11.5919 C.ar    1  UNL1        0.1006
      3 N          62.2873   88.6244   10.9537 N.ar    1  UNL1       -0.2861
      4 C          62.7503   90.0242   11.2302 C.ar    1  UNL1        0.0846
      5 C          62.0617   90.9400   10.2622 C.ar    1  UNL1        0.1180
      6 N          61.1731   90.1062    9.3874 N.ar    1  UNL1       -0.2233
      7 C          61.3125   88.6752    9.8148 C.ar    1  UNL1        0.1672
      8 C          60.6778   87.4117    9.3140 C.ar    1  UNL1        0.1361
      9 N          61.0179   86.0976    9.9522 N.ar    1  UNL1       -0.2392
     10 C          63.7300   90.4358   12.2890 C.ar    1  UNL1        0.0179
     11 C          64.5803   91.6553   12.0906 C.ar    1  UNL1        0.0046
     12 C          65.5600   92.0670   13.1493 C.ar    1  UNL1        0.0367
     13 C          65.6893   91.2590   14.4065 C.ar    1  UNL1        0.1337
     14 O          66.6689   91.6706   15.4652 O.3     1  UNL1       -0.5055
     15 C          64.8389   90.0394   14.6049 C.ar    1  UNL1        0.0367
     16 C          63.8592   89.6277   13.5462 C.ar    1  UNL1        0.0046
     17 H          67.2001   92.4325   15.3412 H       1  UNL1        0.2922
     18 C          63.0129   82.1042   13.0055 C.ar    1  UNL1        0.0531
     19 C          62.6919   83.2930   13.8621 C.ar    1  UNL1        0.0046
     20 C          62.3518   84.6073   13.2239 C.ar    1  UNL1        0.0017
     21 C          62.3328   84.7326   11.7293 C.ar    1  UNL1        0.0191
     22 C          62.6538   83.5438   10.8728 C.ar    1  UNL1        0.0017
     23 C          62.9939   82.2296   11.5109 C.ar    1  UNL1        0.0046
     24 N          62.4598   79.6027   13.4373 N.am    1  UNL1       -0.3253
     25 C          63.3530   80.7900   13.6436 C.2     1  UNL1        0.2427
     26 O          64.5862   80.6630   14.4881 O.2     1  UNL1       -0.2704
     27 H          62.6830   78.7401   13.8561 H       1  UNL1        0.1453
     28 H          61.6504   79.6860   12.8831 H       1  UNL1        0.1453
@<TRIPOS>BOND
     1    24    25   am
     2    25    26    2
     3    25    18    1
     4    18    19   ar
     5    19    20   ar
     6    20    21   ar
     7    21     1    1
     8     1     2   ar
     9     2     3   ar
    10     3     4   ar
    11     4    10    1
    12    10    11   ar
    13    11    12   ar
    14    12    13   ar
    15    13    14    1
    16    13    15   ar
    17    15    16   ar
    18     4     5   ar
    19     5     6   ar
    20     6     7   ar
    21     7     8   ar
    22     8     9   ar
    23    21    22   ar
    24    22    23   ar
    25    23    18   ar
    26     9     1   ar
    27     7     3   ar
    28    16    10   ar
    29    24    27    1
    30    24    28    1
    31    14    17    1
@<TRIPOS>MOLECULE
*****
 28 31 0 0 0
SMALL
GASTEIGER

@<TRIPOS>ATOM
      1 C          62.5365   87.3298   11.6838 C.ar    1  UNL1        0.0989
      2 C          62.7733   85.8591   11.8594 C.ar    1  UNL1        0.1006
      3 N          63.5756   85.3627   13.0255 N.ar    1  UNL1       -0.2861
      4 C          63.9715   83.9815   13.4562 C.ar    1  UNL1        0.0846
      5 C          64.7816   84.1020   14.7128 C.ar    1  UNL1        0.1180
      6 N          64.8864   85.5578   15.0588 N.ar    1  UNL1       -0.2233
      7 C          64.1411   86.3370   14.0159 C.ar    1  UNL1        0.1672
      8 C          63.9043   87.8077   13.8403 C.ar    1  UNL1        0.1361
      9 N          63.1020   88.3041   12.6742 N.ar    1  UNL1       -0.2392
     10 C          63.6190   82.7039   12.7536 C.ar    1  UNL1        0.0179
     11 C          62.9930   81.5755   13.5182 C.ar    1  UNL1        0.0046
     12 C          62.6406   80.2979   12.8156 C.ar    1  UNL1        0.0367
     13 C          62.9141   80.1488   11.3483 C.ar    1  UNL1        0.1337
     14 O          62.5617   78.8713   10.6457 O.3     1  UNL1       -0.5055
     15 C          63.5401   81.2773   10.5836 C.ar    1  UNL1        0.0367
     16 C          63.8926   82.5548   11.2862 C.ar    1  UNL1        0.0046
     17 H          62.1706   78.1664   11.1234 H       1  UNL1        0.2922
     18 C          60.1296   88.8194    8.1854 C.ar    1  UNL1        0.0531
     19 C          60.4536   87.3598    8.3057 C.ar    1  UNL1        0.0046
     20 C          61.2560   86.8632    9.4718 C.ar    1  UNL1        0.0017
     21 C          61.7342   87.8263   10.5176 C.ar    1  UNL1        0.0191
     22 C          61.4101   89.2860   10.3973 C.ar    1  UNL1        0.0017
     23 C          60.6078   89.7825    9.2313 C.ar    1  UNL1        0.0046
     24 N          59.9325   90.2908    6.0533 N.am    1  UNL1       -0.3253
     25 C          59.3273   89.3159    7.0193 C.2     1  UNL1        0.2427
     26 O          57.9198   88.8375    6.8193 O.2     1  UNL1       -0.2704
     27 H          59.4060   90.6167    5.2880 H       1  UNL1        0.1453
     28 H          60.8563   90.6047    6.1846 H       1  UNL1        0.1453
@<TRIPOS>BOND
     1    24    25   am
     2    25    26    2
     3    25    18    1
     4    18    19   ar
     5    19    20   ar
     6    20    21   ar
     7    21     1    1
     8     1     2   ar
     9     2     3   ar
    10     3     4   ar
    11     4    10    1
    12    10    11   ar
    13    11    12   ar
    14    12    13   ar
    15    13    14    1
    16    13    15   ar
    17    15    16   ar
    18     4     5   ar
    19     5     6   ar
    20     6     7   ar
    21     7     8   ar
    22     8     9   ar
    23    21    22   ar
    24    22    23   ar
    25    23    18   ar
    26     9     1   ar
    27     7     3   ar
    28    16    10   ar
    29    24    27    1
    30    24    28    1
    31    14    17    1
