@<TRIPOS>MOLECULE
*****
 33 36 0 0 0
SMALL
GASTEIGER

@<TRIPOS>ATOM
      1 C          60.7621   88.3163    9.9248 C.ar    1  UNL1        0.1399
      2 C          59.6507   88.0956    8.9419 C.ar    1  UNL1        0.0554
      3 C          59.7037   86.9300    7.9991 C.ar    1  UNL1        0.1047
      4 N          60.8680   85.9852    8.0393 N.ar    1  UNL1       -0.2119
      5 C          61.9794   86.2059    9.0222 C.ar    1  UNL1        0.2218
      6 N          61.9265   87.3714    9.9649 N.ar    1  UNL1       -0.1983
      7 N          60.7091   89.4818   10.8675 N.pl3   1  UNL1       -0.2705
      8 C          59.3923   89.9397   11.4207 C.3     1  UNL1        0.1187
      9 C          66.6313   92.2455   15.2164 C.3     1  UNL1        0.0718
     10 C          65.6344   91.8495   14.1679 C.ar    1  UNL1        0.1208
     11 N          65.6967   92.2067   12.7124 N.ar    1  UNL1       -0.2309
     12 C          64.5010   91.6047   12.0357 C.ar    1  UNL1        0.0984
     13 C          64.0384   91.6264   10.6090 C.ar    1  UNL1        0.0219
     14 C          62.7744   90.9188   10.2196 C.ar    1  UNL1        0.0165
     15 C          61.9731   90.1895   11.2569 C.ar    1  UNL1        0.0543
     16 C          62.4358   90.1678   12.6836 C.ar    1  UNL1        0.0336
     17 C          63.6997   90.8754   13.0730 C.ar    1  UNL1        0.0799
     18 N          64.4002   91.0267   14.3907 N.ar    1  UNL1       -0.3128
     19 C          63.9462   90.4554   15.7012 C.3     1  UNL1        0.1316
     20 N          63.1437   85.2611    9.0624 N.pl3   1  UNL1       -0.2825
     21 H          63.7939   85.2494    8.3232 H       1  UNL1        0.1551
     22 C          63.3176   84.3342   10.2288 C.ar    1  UNL1        0.0518
     23 C          63.9136   82.9732   10.0229 C.ar    1  UNL1        0.0148
     24 C          64.0874   82.0463   11.1894 C.ar    1  UNL1        0.0026
     25 C          63.6652   82.4803   12.5617 C.ar    1  UNL1        0.0200
     26 C          63.0692   83.8413   12.7676 C.ar    1  UNL1        0.1229
     27 C          62.8954   84.7682   11.6011 C.ar    1  UNL1        0.0346
     28 S          62.6470   84.2754   14.1400 S.O2    1  UNL1        0.0572
     29 N          62.2247   84.7095   15.5123 N.3     1  UNL1       -0.2035
     30 O          62.1337   82.8939   14.4190 O.2     1  UNL1       -0.1532
     31 O          63.1602   85.6569   13.8609 O.2     1  UNL1       -0.1532
     32 H          61.8000   83.9221   16.0022 H       1  UNL1        0.1442
     33 H          61.5469   85.4678   15.4355 H       1  UNL1        0.1442
@<TRIPOS>BOND
     1     9    10    1
     2    10    11   ar
     3    11    12   ar
     4    12    13   ar
     5    13    14   ar
     6    14    15   ar
     7    15     7    1
     8     7     8    1
     9     7     1    1
    10     1     2   ar
    11     2     3   ar
    12     3     4   ar
    13     4     5   ar
    14     5    20    1
    15    20    22    1
    16    22    23   ar
    17    23    24   ar
    18    24    25   ar
    19    25    26   ar
    20    26    28    1
    21    28    29    1
    22    28    30    2
    23    28    31    2
    24    26    27   ar
    25     5     6   ar
    26    15    16   ar
    27    16    17   ar
    28    17    18   ar
    29    18    19    1
    30    18    10   ar
    31    17    12   ar
    32     6     1   ar
    33    27    22   ar
    34    20    21    1
    35    29    32    1
    36    29    33    1
@<TRIPOS>MOLECULE
*****
 33 36 0 0 0
SMALL
GASTEIGER

@<TRIPOS>ATOM
      1 C          62.2766   88.7014   10.7026 C.ar    1  UNL1        0.1399
      2 C          62.4787   90.0063    9.9910 C.ar    1  UNL1        0.0554
      3 C          63.0287   91.1880   10.7332 C.ar    1  UNL1        0.1047
      4 N          63.3768   91.0650   12.1870 N.ar    1  UNL1       -0.2119
      5 C          63.1748   89.7600   12.8987 C.ar    1  UNL1        0.2218
      6 N          62.6247   88.5783   12.1565 N.ar    1  UNL1       -0.1983
      7 N          61.7265   87.5197    9.9605 N.pl3   1  UNL1       -0.2705
      8 C          60.6218   87.7081    8.9634 C.3     1  UNL1        0.1187
      9 C          63.7342   80.8944   13.6616 C.3     1  UNL1        0.0718
     10 C          63.4703   82.0354   12.7243 C.ar    1  UNL1        0.1208
     11 N          63.8430   82.0879   11.2722 N.ar    1  UNL1       -0.2309
     12 C          63.3905   83.4091   10.7250 C.ar    1  UNL1        0.0984
     13 C          63.4882   84.0152    9.3564 C.ar    1  UNL1        0.0219
     14 C          62.9336   85.3853    9.1015 C.ar    1  UNL1        0.0165
     15 C          62.2812   86.1494   10.2153 C.ar    1  UNL1        0.0543
     16 C          62.1835   85.5434   11.5839 C.ar    1  UNL1        0.0336
     17 C          62.7382   84.1733   11.8388 C.ar    1  UNL1        0.0799
     18 N          62.7875   83.3242   13.0744 N.ar    1  UNL1       -0.3128
     19 C          62.2486   83.6984   14.4233 C.3     1  UNL1        0.1316
     20 N          63.5228   89.6370   14.3526 N.pl3   1  UNL1       -0.2825
     21 H          63.1417   88.9052   14.8897 H       1  UNL1        0.1551
     22 C          64.4515   90.6288   14.9880 C.ar    1  UNL1        0.0518
     23 C          64.0006   91.4228   16.1780 C.ar    1  UNL1        0.0148
     24 C          64.9293   92.4146   16.8135 C.ar    1  UNL1        0.0026
     25 C          66.3089   92.6125   16.2589 C.ar    1  UNL1        0.0200
     26 C          66.7598   91.8185   15.0689 C.ar    1  UNL1        0.1229
     27 C          65.8311   90.8266   14.4334 C.ar    1  UNL1        0.0346
     28 S          68.1394   92.0163   14.5143 S.O2    1  UNL1        0.0572
     29 N          69.5190   92.2141   13.9597 N.3     1  UNL1       -0.2035
     30 O          68.6592   92.2708   15.8981 O.2     1  UNL1       -0.1532
     31 O          67.6196   91.7618   13.1305 O.2     1  UNL1       -0.1532
     32 H          70.1649   92.4221   14.7212 H       1  UNL1        0.1442
     33 H          69.5115   92.9907   13.2985 H       1  UNL1        0.1442
@<TRIPOS>BOND
     1     9    10    1
     2    10    11   ar
     3    11    12   ar
     4    12    13   ar
     5    13    14   ar
     6    14    15   ar
     7    15     7    1
     8     7     8    1
     9     7     1    1
    10     1     2   ar
    11     2     3   ar
    12     3     4   ar
    13     4     5   ar
    14     5    20    1
    15    20    22    1
    16    22    23   ar
    17    23    24   ar
    18    24    25   ar
    19    25    26   ar
    20    26    28    1
    21    28    29    1
    22    28    30    2
    23    28    31    2
    24    26    27   ar
    25     5     6   ar
    26    15    16   ar
    27    16    17   ar
    28    17    18   ar
    29    18    19    1
    30    18    10   ar
    31    17    12   ar
    32     6     1   ar
    33    27    22   ar
    34    20    21    1
    35    29    32    1
    36    29    33    1
@<TRIPOS>MOLECULE
*****
 33 36 0 0 0
SMALL
GASTEIGER

@<TRIPOS>ATOM
      1 C          63.8805   88.7252   14.8756 C.ar    1  UNL1        0.1399
      2 C          63.1745   89.1739   16.1207 C.ar    1  UNL1        0.0554
      3 C          62.9387   88.2038   17.2401 C.ar    1  UNL1        0.1047
      4 N          63.4088   86.7849   17.1145 N.ar    1  UNL1       -0.2119
      5 C          64.1148   86.3361   15.8694 C.ar    1  UNL1        0.2218
      6 N          64.3506   87.3063   14.7499 N.ar    1  UNL1       -0.1983
      7 N          64.1163   89.6954   13.7561 N.pl3   1  UNL1       -0.2705
      8 C          65.1843   90.7411   13.8824 C.3     1  UNL1        0.1187
      9 C          59.8622   86.7833    7.8362 C.3     1  UNL1        0.0718
     10 C          60.6229   87.5942    8.8431 C.ar    1  UNL1        0.1208
     11 N          60.7894   89.0849    8.8304 N.ar    1  UNL1       -0.2309
     12 C          61.6199   89.4688   10.0190 C.ar    1  UNL1        0.0984
     13 C          62.1052   90.7977   10.5173 C.ar    1  UNL1        0.0219
     14 C          62.9373   90.8732   11.7630 C.ar    1  UNL1        0.0165
     15 C          63.2842   89.6198   12.5104 C.ar    1  UNL1        0.0543
     16 C          62.7989   88.2908   12.0121 C.ar    1  UNL1        0.0336
     17 C          61.9668   88.2153   10.7664 C.ar    1  UNL1        0.0799
     18 N          61.3506   87.0568   10.0397 N.ar    1  UNL1       -0.3128
     19 C          61.4454   85.6141   10.4393 C.3     1  UNL1        0.1316
     20 N          64.5849   84.9173   15.7438 N.pl3   1  UNL1       -0.2825
     21 H          65.3786   84.6158   16.2422 H       1  UNL1        0.1551
     22 C          63.8458   83.9579   14.8588 C.ar    1  UNL1        0.0518
     23 C          62.6291   83.2477   15.3737 C.ar    1  UNL1        0.0148
     24 C          61.8900   82.2882   14.4887 C.ar    1  UNL1        0.0026
     25 C          62.3676   82.0390   13.0888 C.ar    1  UNL1        0.0200
     26 C          63.5843   82.7492   12.5739 C.ar    1  UNL1        0.1229
     27 C          64.3234   83.7086   13.4589 C.ar    1  UNL1        0.0346
     28 S          64.0620   82.5000   11.1739 S.O2    1  UNL1        0.0572
     29 N          64.5396   82.2507    9.7741 N.3     1  UNL1       -0.2035
     30 O          63.0404   81.4127   11.0190 O.2     1  UNL1       -0.1532
     31 O          65.0836   83.5873   11.3289 O.2     1  UNL1       -0.1532
     32 H          63.9929   81.4971    9.3574 H       1  UNL1        0.1442
     33 H          65.5244   81.9860    9.7929 H       1  UNL1        0.1442
@<TRIPOS>BOND
     1     9    10    1
     2    10    11   ar
     3    11    12   ar
     4    12    13   ar
     5    13    14   ar
     6    14    15   ar
     7    15     7    1
     8     7     8    1
     9     7     1    1
    10     1     2   ar
    11     2     3   ar
    12     3     4   ar
    13     4     5   ar
    14     5    20    1
    15    20    22    1
    16    22    23   ar
    17    23    24   ar
    18    24    25   ar
    19    25    26   ar
    20    26    28    1
    21    28    29    1
    22    28    30    2
    23    28    31    2
    24    26    27   ar
    25     5     6   ar
    26    15    16   ar
    27    16    17   ar
    28    17    18   ar
    29    18    19    1
    30    18    10   ar
    31    17    12   ar
    32     6     1   ar
    33    27    22   ar
    34    20    21    1
    35    29    32    1
    36    29    33    1
@<TRIPOS>MOLECULE
*****
 33 36 0 0 0
SMALL
GASTEIGER

@<TRIPOS>ATOM
      1 C          61.0404   88.3352    9.7878 C.ar    1  UNL1        0.1399
      2 C          59.7564   88.9023   10.3165 C.ar    1  UNL1        0.0554
      3 C          59.7594   90.2128   11.0462 C.ar    1  UNL1        0.1047
      4 N          61.0466   90.9562   11.2473 N.ar    1  UNL1       -0.2119
      5 C          62.3308   90.3891   10.7186 C.ar    1  UNL1        0.2218
      6 N          62.3277   89.0786    9.9888 N.ar    1  UNL1       -0.1983
      7 N          61.0373   87.0246    9.0581 N.pl3   1  UNL1       -0.2705
      8 C          60.1421   86.8296    7.8705 C.3     1  UNL1        0.1187
      9 C          64.4877   81.6999   13.6803 C.3     1  UNL1        0.0718
     10 C          63.9984   82.6085   12.5917 C.ar    1  UNL1        0.1208
     11 N          64.4688   82.6109   11.1674 N.ar    1  UNL1       -0.2309
     12 C          63.7139   83.6782   10.4317 C.ar    1  UNL1        0.0984
     13 C          63.7587   84.1365    9.0042 C.ar    1  UNL1        0.0219
     14 C          62.8665   85.2519    8.5463 C.ar    1  UNL1        0.0165
     15 C          61.9295   85.9091    9.5160 C.ar    1  UNL1        0.0543
     16 C          61.8848   85.4508   10.9435 C.ar    1  UNL1        0.0336
     17 C          62.7770   84.3354   11.4014 C.ar    1  UNL1        0.0799
     18 N          62.9528   83.6743   12.7363 N.ar    1  UNL1       -0.3128
     19 C          62.2129   84.0185   13.9949 C.3     1  UNL1        0.1316
     20 N          63.6179   91.1326   10.9197 N.pl3   1  UNL1       -0.2825
     21 H          64.0797   91.5347   10.1488 H       1  UNL1        0.1551
     22 C          64.2015   91.2634   12.2953 C.ar    1  UNL1        0.0518
     23 C          65.3735   92.1697   12.5297 C.ar    1  UNL1        0.0148
     24 C          65.9571   92.3005   13.9053 C.ar    1  UNL1        0.0026
     25 C          65.3686   91.5250   15.0465 C.ar    1  UNL1        0.0200
     26 C          64.1966   90.6187   14.8121 C.ar    1  UNL1        0.1229
     27 C          63.6131   90.4879   13.4365 C.ar    1  UNL1        0.0346
     28 S          63.6082   89.8432   15.9533 S.O2    1  UNL1        0.0572
     29 N          63.0197   89.0677   17.0944 N.3     1  UNL1       -0.2035
     30 O          63.7849   88.5705   15.1794 O.2     1  UNL1       -0.1532
     31 O          63.4314   91.1159   16.7271 O.2     1  UNL1       -0.1532
     32 H          62.9996   88.0759   16.8569 H       1  UNL1        0.1442
     33 H          62.0699   89.3938   17.2732 H       1  UNL1        0.1442
@<TRIPOS>BOND
     1     9    10    1
     2    10    11   ar
     3    11    12   ar
     4    12    13   ar
     5    13    14   ar
     6    14    15   ar
     7    15     7    1
     8     7     8    1
     9     7     1    1
    10     1     2   ar
    11     2     3   ar
    12     3     4   ar
    13     4     5   ar
    14     5    20    1
    15    20    22    1
    16    22    23   ar
    17    23    24   ar
    18    24    25   ar
    19    25    26   ar
    20    26    28    1
    21    28    29    1
    22    28    30    2
    23    28    31    2
    24    26    27   ar
    25     5     6   ar
    26    15    16   ar
    27    16    17   ar
    28    17    18   ar
    29    18    19    1
    30    18    10   ar
    31    17    12   ar
    32     6     1   ar
    33    27    22   ar
    34    20    21    1
    35    29    32    1
    36    29    33    1
@<TRIPOS>MOLECULE
*****
 33 36 0 0 0
SMALL
GASTEIGER

@<TRIPOS>ATOM
      1 C          63.5539   85.1470   14.0510 C.ar    1  UNL1        0.1399
      2 C          62.9684   84.5924   15.3157 C.ar    1  UNL1        0.0554
      3 C          62.8568   85.4602   16.5341 C.ar    1  UNL1        0.1047
      4 N          63.3306   86.8826   16.4877 N.ar    1  UNL1       -0.2119
      5 C          63.9161   87.4373   15.2229 C.ar    1  UNL1        0.2218
      6 N          64.0277   86.5695   14.0046 N.ar    1  UNL1       -0.1983
      7 N          63.6655   84.2792   12.8326 N.pl3   1  UNL1       -0.2705
      8 C          64.3489   82.9468   12.9209 C.3     1  UNL1        0.1187
      9 C          59.3794   88.2704    7.6055 C.3     1  UNL1        0.0718
     10 C          60.3023   87.3711    8.3732 C.ar    1  UNL1        0.1208
     11 N          61.2131   86.3339    7.7860 N.ar    1  UNL1       -0.2309
     12 C          61.9503   85.6728    8.9127 C.ar    1  UNL1        0.0984
     13 C          62.9772   84.5798    8.9357 C.ar    1  UNL1        0.0219
     14 C          63.5489   84.1152   10.2423 C.ar    1  UNL1        0.0165
     15 C          63.0937   84.7438   11.5260 C.ar    1  UNL1        0.0543
     16 C          62.0668   85.8369   11.5030 C.ar    1  UNL1        0.0336
     17 C          61.4951   86.3014   10.1964 C.ar    1  UNL1        0.0799
     18 N          60.4766   87.3509    9.8629 N.ar    1  UNL1       -0.3128
     19 C          59.7585   88.2266   10.8465 C.3     1  UNL1        0.1316
     20 N          64.3899   88.8597   15.1766 N.pl3   1  UNL1       -0.2825
     21 H          64.8231   89.2602   15.9647 H       1  UNL1        0.1551
     22 C          64.2037   89.6720   13.9294 C.ar    1  UNL1        0.0518
     23 C          63.1794   89.2619   12.9132 C.ar    1  UNL1        0.0148
     24 C          62.9932   90.0741   11.6660 C.ar    1  UNL1        0.0026
     25 C          63.8313   91.2965   11.4349 C.ar    1  UNL1        0.0200
     26 C          64.8555   91.7066   12.4511 C.ar    1  UNL1        0.1229
     27 C          65.0417   90.8944   13.6983 C.ar    1  UNL1        0.0346
     28 S          65.6936   92.9291   12.2201 S.O2    1  UNL1        0.0572
     29 N          66.5317   94.1515   11.9892 N.3     1  UNL1       -0.2035
     30 O          65.7933   93.1407   13.7017 O.2     1  UNL1       -0.1532
     31 O          65.5940   92.7175   10.7385 O.2     1  UNL1       -0.1532
     32 H          66.7855   94.5642   12.8867 H       1  UNL1        0.1442
     33 H          66.0012   94.8289   11.4414 H       1  UNL1        0.1442
@<TRIPOS>BOND
     1     9    10    1
     2    10    11   ar
     3    11    12   ar
     4    12    13   ar
     5    13    14   ar
     6    14    15   ar
     7    15     7    1
     8     7     8    1
     9     7     1    1
    10     1     2   ar
    11     2     3   ar
    12     3     4   ar
    13     4     5   ar
    14     5    20    1
    15    20    22    1
    16    22    23   ar
    17    23    24   ar
    18    24    25   ar
    19    25    26   ar
    20    26    28    1
    21    28    29    1
    22    28    30    2
    23    28    31    2
    24    26    27   ar
    25     5     6   ar
    26    15    16   ar
    27    16    17   ar
    28    17    18   ar
    29    18    19    1
    30    18    10   ar
    31    17    12   ar
    32     6     1   ar
    33    27    22   ar
    34    20    21    1
    35    29    32    1
    36    29    33    1
@<TRIPOS>MOLECULE
*****
 33 36 0 0 0
SMALL
GASTEIGER

@<TRIPOS>ATOM
      1 C          60.9124   88.5688    9.9707 C.ar    1  UNL1        0.1399
      2 C          59.9737   88.3813    8.8159 C.ar    1  UNL1        0.0554
      3 C          60.0066   87.1094    8.0215 C.ar    1  UNL1        0.1047
      4 N          60.9782   86.0249    8.3818 N.ar    1  UNL1       -0.2119
      5 C          61.9170   86.2123    9.5366 C.ar    1  UNL1        0.2218
      6 N          61.8841   87.4843   10.3311 N.ar    1  UNL1       -0.1983
      7 N          60.8795   89.8407   10.7651 N.pl3   1  UNL1       -0.2705
      8 C          59.5651   90.4751   11.1110 C.3     1  UNL1        0.1187
      9 C          66.7862   92.1929   15.3697 C.3     1  UNL1        0.0718
     10 C          65.8043   91.8765   14.2808 C.ar    1  UNL1        0.1208
     11 N          65.9248   92.2785   12.8407 N.ar    1  UNL1       -0.2309
     12 C          64.7244   91.7529   12.1107 C.ar    1  UNL1        0.0984
     13 C          64.3052   91.8423   10.6733 C.ar    1  UNL1        0.0219
     14 C          63.0236   91.2049   10.2248 C.ar    1  UNL1        0.0165
     15 C          62.1612   90.4781   11.2137 C.ar    1  UNL1        0.0543
     16 C          62.5804   90.3887   12.6511 C.ar    1  UNL1        0.0336
     17 C          63.8619   91.0261   13.0996 C.ar    1  UNL1        0.0799
     18 N          64.5294   91.1025   14.4408 N.ar    1  UNL1       -0.3128
     19 C          64.0126   90.5090   15.7178 C.3     1  UNL1        0.1316
     20 N          62.8886   85.1279    9.8970 N.pl3   1  UNL1       -0.2825
     21 H          63.5158   84.7842    9.2204 H       1  UNL1        0.1551
     22 C          62.9046   84.5671   11.2881 C.ar    1  UNL1        0.0518
     23 C          63.1266   85.4759   12.4606 C.ar    1  UNL1        0.0148
     24 C          63.1427   84.9151   13.8517 C.ar    1  UNL1        0.0026
     25 C          62.9366   83.4455   14.0704 C.ar    1  UNL1        0.0200
     26 C          62.7146   82.5367   12.8979 C.ar    1  UNL1        0.1229
     27 C          62.6986   83.0975   11.5068 C.ar    1  UNL1        0.0346
     28 S          62.5085   81.0671   13.1165 S.O2    1  UNL1        0.0572
     29 N          62.3025   79.5975   13.3352 N.3     1  UNL1       -0.2035
     30 O          62.2230   81.3229   14.5667 O.2     1  UNL1       -0.1532
     31 O          62.7941   80.8113   11.6664 O.2     1  UNL1       -0.1532
     32 H          62.0727   79.4284   14.3145 H       1  UNL1        0.1442
     33 H          63.1569   79.0949   13.0947 H       1  UNL1        0.1442
@<TRIPOS>BOND
     1     9    10    1
     2    10    11   ar
     3    11    12   ar
     4    12    13   ar
     5    13    14   ar
     6    14    15   ar
     7    15     7    1
     8     7     8    1
     9     7     1    1
    10     1     2   ar
    11     2     3   ar
    12     3     4   ar
    13     4     5   ar
    14     5    20    1
    15    20    22    1
    16    22    23   ar
    17    23    24   ar
    18    24    25   ar
    19    25    26   ar
    20    26    28    1
    21    28    29    1
    22    28    30    2
    23    28    31    2
    24    26    27   ar
    25     5     6   ar
    26    15    16   ar
    27    16    17   ar
    28    17    18   ar
    29    18    19    1
    30    18    10   ar
    31    17    12   ar
    32     6     1   ar
    33    27    22   ar
    34    20    21    1
    35    29    32    1
    36    29    33    1
@<TRIPOS>MOLECULE
*****
 33 36 0 0 0
SMALL
GASTEIGER

@<TRIPOS>ATOM
      1 C          61.0530   88.2288   10.1639 C.ar    1  UNL1        0.1399
      2 C          60.1733   89.3727    9.7545 C.ar    1  UNL1        0.0554
      3 C          60.1449   90.6281   10.5750 C.ar    1  UNL1        0.1047
      4 N          60.9962   90.7396   11.8050 N.ar    1  UNL1       -0.2119
      5 C          61.8759   89.5956   12.2145 C.ar    1  UNL1        0.2218
      6 N          61.9043   88.3403   11.3940 N.ar    1  UNL1       -0.1983
      7 N          61.0814   86.9735    9.3434 N.pl3   1  UNL1       -0.2705
      8 C          60.2271   86.8605    8.1157 C.3     1  UNL1        0.1187
      9 C          64.4399   81.3759   13.7036 C.3     1  UNL1        0.0718
     10 C          63.9720   82.3489   12.6622 C.ar    1  UNL1        0.1208
     11 N          64.4696   82.4358   11.2498 N.ar    1  UNL1       -0.2309
     12 C          63.7295   83.5464   10.5651 C.ar    1  UNL1        0.0984
     13 C          63.8019   84.0893    9.1687 C.ar    1  UNL1        0.0219
     14 C          62.9192   85.2316    8.7615 C.ar    1  UNL1        0.0165
     15 C          61.9641   85.8311    9.7507 C.ar    1  UNL1        0.0543
     16 C          61.8918   85.2882   11.1471 C.ar    1  UNL1        0.0336
     17 C          62.7745   84.1459   11.5543 C.ar    1  UNL1        0.0799
     18 N          62.9243   83.4058   12.8504 N.ar    1  UNL1       -0.3128
     19 C          62.1606   83.6752   14.1129 C.3     1  UNL1        0.1316
     20 N          62.7272   89.7071   13.4445 N.pl3   1  UNL1       -0.2825
     21 H          62.4661   89.2355   14.2682 H       1  UNL1        0.1551
     22 C          63.9763   90.5372   13.4194 C.ar    1  UNL1        0.0518
     23 C          64.9867   90.4054   14.5201 C.ar    1  UNL1        0.0148
     24 C          66.2358   91.2354   14.4950 C.ar    1  UNL1        0.0026
     25 C          66.4746   92.1974   13.3691 C.ar    1  UNL1        0.0200
     26 C          65.4642   92.3293   12.2684 C.ar    1  UNL1        0.1229
     27 C          64.2151   91.4992   12.2935 C.ar    1  UNL1        0.0346
     28 S          65.7029   93.2913   11.1425 S.O2    1  UNL1        0.0572
     29 N          65.9416   94.2532   10.0166 N.3     1  UNL1       -0.2035
     30 O          64.7084   92.5504   10.2987 O.2     1  UNL1       -0.1532
     31 O          66.6974   94.0322   11.9863 O.2     1  UNL1       -0.1532
     32 H          65.3581   93.9962    9.2204 H       1  UNL1        0.1442
     33 H          66.9237   94.2197    9.7432 H       1  UNL1        0.1442
@<TRIPOS>BOND
     1     9    10    1
     2    10    11   ar
     3    11    12   ar
     4    12    13   ar
     5    13    14   ar
     6    14    15   ar
     7    15     7    1
     8     7     8    1
     9     7     1    1
    10     1     2   ar
    11     2     3   ar
    12     3     4   ar
    13     4     5   ar
    14     5    20    1
    15    20    22    1
    16    22    23   ar
    17    23    24   ar
    18    24    25   ar
    19    25    26   ar
    20    26    28    1
    21    28    29    1
    22    28    30    2
    23    28    31    2
    24    26    27   ar
    25     5     6   ar
    26    15    16   ar
    27    16    17   ar
    28    17    18   ar
    29    18    19    1
    30    18    10   ar
    31    17    12   ar
    32     6     1   ar
    33    27    22   ar
    34    20    21    1
    35    29    32    1
    36    29    33    1
@<TRIPOS>MOLECULE
*****
 33 36 0 0 0
SMALL
GASTEIGER

@<TRIPOS>ATOM
      1 C          63.6797   86.2700   15.2260 C.ar    1  UNL1        0.1399
      2 C          63.2292   85.6826   16.5306 C.ar    1  UNL1        0.0554
      3 C          62.8610   86.5840   17.6716 C.ar    1  UNL1        0.1047
      4 N          62.9434   88.0727   17.5081 N.ar    1  UNL1       -0.2119
      5 C          63.3939   88.6602   16.2034 C.ar    1  UNL1        0.2218
      6 N          63.7621   87.7588   15.0624 N.ar    1  UNL1       -0.1983
      7 N          64.0479   85.3686   14.0850 N.pl3   1  UNL1       -0.2705
      8 C          65.1433   84.3574   14.2512 C.3     1  UNL1        0.1187
      9 C          59.9661   88.3740    8.0908 C.3     1  UNL1        0.0718
     10 C          60.7378   87.5558    9.0834 C.ar    1  UNL1        0.1208
     11 N          61.0960   86.1061    8.9423 N.ar    1  UNL1       -0.2309
     12 C          61.8663   85.6980   10.1630 C.ar    1  UNL1        0.0984
     13 C          62.4756   84.3906   10.5748 C.ar    1  UNL1        0.0219
     14 C          63.2028   84.2809   11.8821 C.ar    1  UNL1        0.0165
     15 C          63.3207   85.4784   12.7776 C.ar    1  UNL1        0.0543
     16 C          62.7114   86.7857   12.3658 C.ar    1  UNL1        0.0336
     17 C          61.9842   86.8955   11.0585 C.ar    1  UNL1        0.0799
     18 N          61.2867   88.0437   10.3913 N.ar    1  UNL1       -0.3128
     19 C          61.1604   89.4355   10.9363 C.3     1  UNL1        0.1316
     20 N          63.4763   90.1489   16.0399 N.pl3   1  UNL1       -0.2825
     21 H          63.0405   90.7409   16.6948 H       1  UNL1        0.1551
     22 C          64.2226   90.7357   14.8786 C.ar    1  UNL1        0.0518
     23 C          63.5199   90.9631   13.5731 C.ar    1  UNL1        0.0148
     24 C          64.2663   91.5500   12.4118 C.ar    1  UNL1        0.0026
     25 C          65.7154   91.9094   12.5561 C.ar    1  UNL1        0.0200
     26 C          66.4181   91.6820   13.8616 C.ar    1  UNL1        0.1229
     27 C          65.6718   91.0952   15.0229 C.ar    1  UNL1        0.0346
     28 S          67.8673   92.0414   14.0059 S.O2    1  UNL1        0.0572
     29 N          69.3164   92.4008   14.1501 N.3     1  UNL1       -0.2035
     30 O          67.9837   92.1701   12.5160 O.2     1  UNL1       -0.1532
     31 O          67.7509   91.9128   15.4958 O.2     1  UNL1       -0.1532
     32 H          69.7195   92.5648   13.2276 H       1  UNL1        0.1442
     33 H          69.8127   91.6357   14.6069 H       1  UNL1        0.1442
@<TRIPOS>BOND
     1     9    10    1
     2    10    11   ar
     3    11    12   ar
     4    12    13   ar
     5    13    14   ar
     6    14    15   ar
     7    15     7    1
     8     7     8    1
     9     7     1    1
    10     1     2   ar
    11     2     3   ar
    12     3     4   ar
    13     4     5   ar
    14     5    20    1
    15    20    22    1
    16    22    23   ar
    17    23    24   ar
    18    24    25   ar
    19    25    26   ar
    20    26    28    1
    21    28    29    1
    22    28    30    2
    23    28    31    2
    24    26    27   ar
    25     5     6   ar
    26    15    16   ar
    27    16    17   ar
    28    17    18   ar
    29    18    19    1
    30    18    10   ar
    31    17    12   ar
    32     6     1   ar
    33    27    22   ar
    34    20    21    1
    35    29    32    1
    36    29    33    1
@<TRIPOS>MOLECULE
*****
 33 36 0 0 0
SMALL
GASTEIGER

@<TRIPOS>ATOM
      1 C          63.9292   88.4432   14.9546 C.ar    1  UNL1        0.1399
      2 C          63.2067   88.7465   16.2337 C.ar    1  UNL1        0.0554
      3 C          62.9859   87.6617   17.2458 C.ar    1  UNL1        0.1047
      4 N          63.4875   86.2736   16.9789 N.ar    1  UNL1       -0.2119
      5 C          64.2101   85.9702   15.6998 C.ar    1  UNL1        0.2218
      6 N          64.4309   87.0550   14.6877 N.ar    1  UNL1       -0.1983
      7 N          64.1500   89.5280   13.9425 N.pl3   1  UNL1       -0.2705
      8 C          65.1853   90.5849   14.1896 C.3     1  UNL1        0.1187
      9 C          59.8697   87.1272    7.8157 C.3     1  UNL1        0.0718
     10 C          60.6483   87.8488    8.8754 C.ar    1  UNL1        0.1208
     11 N          60.8791   89.3292    8.9459 N.ar    1  UNL1       -0.2309
     12 C          61.7063   89.6120   10.1648 C.ar    1  UNL1        0.0984
     13 C          62.2404   90.8897   10.7411 C.ar    1  UNL1        0.0219
     14 C          63.0549   90.8617   12.0003 C.ar    1  UNL1        0.0165
     15 C          63.3354   89.5560   12.6832 C.ar    1  UNL1        0.0543
     16 C          62.8013   88.2783   12.1070 C.ar    1  UNL1        0.0336
     17 C          61.9868   88.3063   10.8477 C.ar    1  UNL1        0.0799
     18 N          61.3329   87.2166   10.0509 N.ar    1  UNL1       -0.3128
     19 C          61.3591   85.7518   10.3729 C.3     1  UNL1        0.1316
     20 N          64.7117   84.5820   15.4329 N.pl3   1  UNL1       -0.2825
     21 H          65.4071   84.1905   16.0095 H       1  UNL1        0.1551
     22 C          64.1540   83.7902   14.2875 C.ar    1  UNL1        0.0518
     23 C          64.5574   84.1201   12.8809 C.ar    1  UNL1        0.0148
     24 C          63.9997   83.3284   11.7355 C.ar    1  UNL1        0.0026
     25 C          63.0386   82.2067   11.9965 C.ar    1  UNL1        0.0200
     26 C          62.6352   81.8769   13.4031 C.ar    1  UNL1        0.1229
     27 C          63.1929   82.6686   14.5486 C.ar    1  UNL1        0.0346
     28 S          61.6740   80.7552   13.6643 S.O2    1  UNL1        0.0572
     29 N          60.7130   79.6336   13.9254 N.3     1  UNL1       -0.2035
     30 O          62.4394   79.8790   12.7175 O.2     1  UNL1       -0.1532
     31 O          60.9086   81.6314   14.6110 O.2     1  UNL1       -0.1532
     32 H          60.9858   78.8176   13.3776 H       1  UNL1        0.1442
     33 H          59.7720   79.9230   13.6585 H       1  UNL1        0.1442
@<TRIPOS>BOND
     1     9    10    1
     2    10    11   ar
     3    11    12   ar
     4    12    13   ar
     5    13    14   ar
     6    14    15   ar
     7    15     7    1
     8     7     8    1
     9     7     1    1
    10     1     2   ar
    11     2     3   ar
    12     3     4   ar
    13     4     5   ar
    14     5    20    1
    15    20    22    1
    16    22    23   ar
    17    23    24   ar
    18    24    25   ar
    19    25    26   ar
    20    26    28    1
    21    28    29    1
    22    28    30    2
    23    28    31    2
    24    26    27   ar
    25     5     6   ar
    26    15    16   ar
    27    16    17   ar
    28    17    18   ar
    29    18    19    1
    30    18    10   ar
    31    17    12   ar
    32     6     1   ar
    33    27    22   ar
    34    20    21    1
    35    29    32    1
    36    29    33    1
