@<TRIPOS>MOLECULE
*****
 23 25 0 0 0
SMALL
GASTEIGER

@<TRIPOS>ATOM
      1 N          65.7570   92.3664   13.3099 N.ar    1  UNL1       -0.2904
      2 C          64.7262   91.4454   13.8923 C.ar    1  UNL1        0.1935
      3 N          63.8209   91.0013   12.7819 N.ar    1  UNL1       -0.1221
      4 N          64.2922   91.6478   11.5130 N.ar    1  UNL1       -0.1282
      5 C          65.4888   92.4915   11.8393 C.ar    1  UNL1        0.1668
      6 C          66.2785   93.3155   10.8660 C.ar    1  UNL1        0.0390
      7 C          67.4140   92.6957   10.1067 C.ar    1  UNL1        0.0237
      8 C          68.2037   93.5197    9.1334 C.ar    1  UNL1        0.0990
      9 N          67.8578   94.9635    8.9193 N.ar    1  UNL1       -0.2423
     10 C          66.7222   95.5833    9.6785 C.ar    1  UNL1        0.0990
     11 C          65.9326   94.7592   10.6519 C.ar    1  UNL1        0.0237
     12 C          68.0960   92.2760   14.4372 C.3     1  UNL1        0.0266
     13 C          66.8621   93.0434   14.0652 C.3     1  UNL1        0.1095
     14 S          64.6195   91.0398   15.3326 S.3     1  UNL1       -0.0708
     15 C          63.4643   90.2005   15.7917 C.3     1  UNL1        0.0913
     16 C          63.5854   88.7055   15.8138 C.ar    1  UNL1       -0.0107
     17 C          64.3015   87.9946   14.7040 C.ar    1  UNL1       -0.0003
     18 C          64.4226   86.4997   14.7260 C.ar    1  UNL1        0.0366
     19 C          63.8275   85.7157   15.8580 C.ar    1  UNL1        0.1387
     20 C          63.1114   86.4265   16.9678 C.ar    1  UNL1        0.0366
     21 C          62.9903   87.9215   16.9457 C.ar    1  UNL1       -0.0003
     22 O          63.9487   84.2207   15.8800 O.3     1  UNL1       -0.4714
     23 C          62.9485   83.3763   15.1475 C.3     1  UNL1        0.2525
@<TRIPOS>BOND
     1    12    13    1
     2    13     1    1
     3     1     2   ar
     4     2    14    1
     5    14    15    1
     6    15    16    1
     7    16    17   ar
     8    17    18   ar
     9    18    19   ar
    10    19    22    1
    11    22    23    1
    12    19    20   ar
    13    20    21   ar
    14     2     3   ar
    15     3     4   ar
    16     4     5   ar
    17     5     6    1
    18     6     7   ar
    19     7     8   ar
    20     8     9   ar
    21     9    10   ar
    22    10    11   ar
    23     5     1   ar
    24    11     6   ar
    25    21    16   ar
@<TRIPOS>MOLECULE
*****
 23 25 0 0 0
SMALL
GASTEIGER

@<TRIPOS>ATOM
      1 N          62.4499   86.0934   11.5741 N.ar    1  UNL1       -0.2904
      2 C          62.8003   87.4888   11.9984 C.ar    1  UNL1        0.1935
      3 N          63.5838   87.4023   13.2745 N.ar    1  UNL1       -0.1221
      4 N          63.7177   85.9535   13.6390 N.ar    1  UNL1       -0.1282
      5 C          63.0169   85.1444   12.5881 C.ar    1  UNL1        0.1668
      6 C          62.9031   83.6491   12.5566 C.ar    1  UNL1        0.0390
      7 C          62.3970   82.9099   13.7598 C.ar    1  UNL1        0.0237
      8 C          62.2833   81.4146   13.7283 C.ar    1  UNL1        0.0990
      9 N          62.6755   80.6584   12.4937 N.ar    1  UNL1       -0.2423
     10 C          63.1816   81.3976   11.2906 C.ar    1  UNL1        0.0990
     11 C          63.2954   82.8929   11.3220 C.ar    1  UNL1        0.0237
     12 C          62.3149   85.7817    8.9983 C.3     1  UNL1        0.0266
     13 C          61.6695   85.7135   10.3507 C.3     1  UNL1        0.1095
     14 S          62.4317   88.7494   11.2737 S.3     1  UNL1       -0.0708
     15 C          62.3875   90.0538   12.0129 C.3     1  UNL1        0.0913
     16 C          63.5274   91.0218   11.8949 C.ar    1  UNL1       -0.0107
     17 C          63.8254   91.6726   10.5768 C.ar    1  UNL1       -0.0003
     18 C          64.9652   92.6405   10.4589 C.ar    1  UNL1        0.0366
     19 C          65.8072   92.9574   11.6592 C.ar    1  UNL1        0.1387
     20 C          65.5093   92.3066   12.9773 C.ar    1  UNL1        0.0366
     21 C          64.3694   91.3387   13.0952 C.ar    1  UNL1       -0.0003
     22 O          66.9471   93.9253   11.5413 O.3     1  UNL1       -0.4714
     23 C          66.7826   95.1840   10.7421 C.3     1  UNL1        0.2525
@<TRIPOS>BOND
     1    12    13    1
     2    13     1    1
     3     1     2   ar
     4     2    14    1
     5    14    15    1
     6    15    16    1
     7    16    17   ar
     8    17    18   ar
     9    18    19   ar
    10    19    22    1
    11    22    23    1
    12    19    20   ar
    13    20    21   ar
    14     2     3   ar
    15     3     4   ar
    16     4     5   ar
    17     5     6    1
    18     6     7   ar
    19     7     8   ar
    20     8     9   ar
    21     9    10   ar
    22    10    11   ar
    23     5     1   ar
    24    11     6   ar
    25    21    16   ar
@<TRIPOS>MOLECULE
*****
 23 25 0 0 0
SMALL
GASTEIGER

@<TRIPOS>ATOM
      1 N          62.4595   86.1874   11.4561 N.ar    1  UNL1       -0.2904
      2 C          62.7912   87.5843   11.8905 C.ar    1  UNL1        0.1935
      3 N          63.5434   87.5008   13.1855 N.ar    1  UNL1       -0.1221
      4 N          63.6767   86.0523   13.5516 N.ar    1  UNL1       -0.1282
      5 C          63.0068   85.2405   12.4828 C.ar    1  UNL1        0.1668
      6 C          62.9026   83.7446   12.4470 C.ar    1  UNL1        0.0390
      7 C          63.3409   82.9912   11.2262 C.ar    1  UNL1        0.0237
      8 C          63.2367   81.4953   11.1903 C.ar    1  UNL1        0.0990
      9 N          62.6940   80.7527   12.3753 N.ar    1  UNL1       -0.2423
     10 C          62.2557   81.5061   13.5961 C.ar    1  UNL1        0.0990
     11 C          62.3599   83.0020   13.6319 C.ar    1  UNL1        0.0237
     12 C          62.4089   85.8160    8.8852 C.3     1  UNL1        0.0266
     13 C          61.7119   85.8045   10.2134 C.3     1  UNL1        0.1095
     14 S          62.4333   88.8436   11.1582 S.3     1  UNL1       -0.0708
     15 C          62.3190   90.1391   11.9056 C.3     1  UNL1        0.0913
     16 C          63.5563   90.8947   12.2905 C.ar    1  UNL1       -0.0107
     17 C          64.2746   91.7271   11.2702 C.ar    1  UNL1       -0.0003
     18 C          65.5119   92.4826   11.6551 C.ar    1  UNL1        0.0366
     19 C          66.0309   92.4058   13.0604 C.ar    1  UNL1        0.1387
     20 C          65.3126   91.5734   14.0807 C.ar    1  UNL1        0.0366
     21 C          64.0753   90.8179   13.6958 C.ar    1  UNL1       -0.0003
     22 O          67.2682   93.1615   13.4453 O.3     1  UNL1       -0.4714
     23 C          67.5440   93.4635   14.8884 C.3     1  UNL1        0.2525
@<TRIPOS>BOND
     1    12    13    1
     2    13     1    1
     3     1     2   ar
     4     2    14    1
     5    14    15    1
     6    15    16    1
     7    16    17   ar
     8    17    18   ar
     9    18    19   ar
    10    19    22    1
    11    22    23    1
    12    19    20   ar
    13    20    21   ar
    14     2     3   ar
    15     3     4   ar
    16     4     5   ar
    17     5     6    1
    18     6     7   ar
    19     7     8   ar
    20     8     9   ar
    21     9    10   ar
    22    10    11   ar
    23     5     1   ar
    24    11     6   ar
    25    21    16   ar
@<TRIPOS>MOLECULE
*****
 23 25 0 0 0
SMALL
GASTEIGER

@<TRIPOS>ATOM
      1 N          64.8983   91.7924   12.5477 N.ar    1  UNL1       -0.2904
      2 C          64.7752   91.2156   13.9268 C.ar    1  UNL1        0.1935
      3 N          66.0992   91.3713   14.6144 N.ar    1  UNL1       -0.1221
      4 N          67.0407   92.0444   13.6602 N.ar    1  UNL1       -0.1282
      5 C          66.2985   92.3047   12.3829 C.ar    1  UNL1        0.1668
      6 C          66.8583   92.9618   11.1561 C.ar    1  UNL1        0.0390
      7 C          67.7659   92.1936   10.2417 C.ar    1  UNL1        0.0237
      8 C          68.3257   92.8507    9.0150 C.ar    1  UNL1        0.0990
      9 N          67.9778   94.2760    8.7027 N.ar    1  UNL1       -0.2423
     10 C          67.0702   95.0442    9.6172 C.ar    1  UNL1        0.0990
     11 C          66.5104   94.3871   10.8439 C.ar    1  UNL1        0.0237
     12 C          63.2728   90.5778   10.9252 C.3     1  UNL1        0.0266
     13 C          63.8121   91.8473   11.5147 C.3     1  UNL1        0.1095
     14 S          63.5440   90.5924   14.5151 S.3     1  UNL1       -0.0708
     15 C          63.6285   89.8456   15.8132 C.3     1  UNL1        0.0913
     16 C          63.6767   88.3463   15.8142 C.ar    1  UNL1       -0.0107
     17 C          64.3653   87.6173   14.6988 C.ar    1  UNL1       -0.0003
     18 C          64.4135   86.1181   14.6998 C.ar    1  UNL1        0.0366
     19 C          63.7730   85.3479   15.8164 C.ar    1  UNL1        0.1387
     20 C          63.0844   86.0769   16.9318 C.ar    1  UNL1        0.0366
     21 C          63.0362   87.5761   16.9308 C.ar    1  UNL1       -0.0003
     22 O          63.8212   83.8486   15.8174 O.3     1  UNL1       -0.4714
     23 C          62.9235   83.0688   14.9031 C.3     1  UNL1        0.2525
@<TRIPOS>BOND
     1    12    13    1
     2    13     1    1
     3     1     2   ar
     4     2    14    1
     5    14    15    1
     6    15    16    1
     7    16    17   ar
     8    17    18   ar
     9    18    19   ar
    10    19    22    1
    11    22    23    1
    12    19    20   ar
    13    20    21   ar
    14     2     3   ar
    15     3     4   ar
    16     4     5   ar
    17     5     6    1
    18     6     7   ar
    19     7     8   ar
    20     8     9   ar
    21     9    10   ar
    22    10    11   ar
    23     5     1   ar
    24    11     6   ar
    25    21    16   ar
@<TRIPOS>MOLECULE
*****
 23 25 0 0 0
SMALL
GASTEIGER

@<TRIPOS>ATOM
      1 N          63.9806   90.7223   13.1048 N.ar    1  UNL1       -0.2904
      2 C          63.1722   90.6751   11.8422 C.ar    1  UNL1        0.1935
      3 N          63.8237   91.5817   10.8404 N.ar    1  UNL1       -0.1221
      4 N          65.0349   92.1892   11.4838 N.ar    1  UNL1       -0.1282
      5 C          65.1319   91.6580   12.8833 C.ar    1  UNL1        0.1668
      6 C          66.1937   92.0022   13.8853 C.ar    1  UNL1        0.0390
      7 C          67.6418   91.9124   13.5045 C.ar    1  UNL1        0.0237
      8 C          68.7036   92.2565   14.5065 C.ar    1  UNL1        0.0990
      9 N          68.3173   92.6906   15.8894 N.ar    1  UNL1       -0.2423
     10 C          66.8693   92.7804   16.2702 C.ar    1  UNL1        0.0990
     11 C          65.8075   92.4363   15.2682 C.ar    1  UNL1        0.0237
     12 C          64.3382   88.6365   14.6120 C.3     1  UNL1        0.0266
     13 C          63.6891   89.9665   14.3672 C.3     1  UNL1        0.1095
     14 S          61.9301   89.8638   11.6204 S.3     1  UNL1       -0.0708
     15 C          61.1919   89.9632   10.3184 C.3     1  UNL1        0.0913
     16 C          60.9770   88.7363    9.4825 C.ar    1  UNL1       -0.0107
     17 C          61.9011   87.5630    9.6212 C.ar    1  UNL1       -0.0003
     18 C          61.6861   86.3362    8.7853 C.ar    1  UNL1        0.0366
     19 C          60.5471   86.2827    7.8108 C.ar    1  UNL1        0.1387
     20 C          59.6230   87.4561    7.6721 C.ar    1  UNL1        0.0366
     21 C          59.8379   88.6829    8.5080 C.ar    1  UNL1       -0.0003
     22 O          60.3322   85.0559    6.9748 O.3     1  UNL1       -0.4714
     23 C          61.4817   84.4454    6.2294 C.3     1  UNL1        0.2525
@<TRIPOS>BOND
     1    12    13    1
     2    13     1    1
     3     1     2   ar
     4     2    14    1
     5    14    15    1
     6    15    16    1
     7    16    17   ar
     8    17    18   ar
     9    18    19   ar
    10    19    22    1
    11    22    23    1
    12    19    20   ar
    13    20    21   ar
    14     2     3   ar
    15     3     4   ar
    16     4     5   ar
    17     5     6    1
    18     6     7   ar
    19     7     8   ar
    20     8     9   ar
    21     9    10   ar
    22    10    11   ar
    23     5     1   ar
    24    11     6   ar
    25    21    16   ar
@<TRIPOS>MOLECULE
*****
 23 25 0 0 0
SMALL
GASTEIGER

@<TRIPOS>ATOM
      1 N          62.1730   88.5018   10.7624 N.ar    1  UNL1       -0.2904
      2 C          62.7278   88.7477   12.1341 C.ar    1  UNL1        0.1935
      3 N          63.1571   87.4283   12.7041 N.ar    1  UNL1       -0.1221
      4 N          62.8677   86.3668   11.6845 N.ar    1  UNL1       -0.1282
      5 C          62.2595   87.0302   10.4845 C.ar    1  UNL1        0.1668
      6 C          61.8157   86.3428    9.2273 C.ar    1  UNL1        0.0390
      7 C          60.3845   86.4344    8.7875 C.ar    1  UNL1        0.0237
      8 C          59.9407   85.7470    7.5304 C.ar    1  UNL1        0.0990
      9 N          60.9281   84.9680    6.7130 N.ar    1  UNL1       -0.2423
     10 C          62.3593   84.8763    7.1527 C.ar    1  UNL1        0.0990
     11 C          62.8031   85.5637    8.4099 C.ar    1  UNL1        0.0237
     12 C          60.1457   89.7467    9.7183 C.3     1  UNL1        0.0266
     13 C          61.6276   89.5442    9.8318 C.3     1  UNL1        0.1095
     14 S          62.8345   90.0795   12.8162 S.3     1  UNL1       -0.0708
     15 C          63.6589   91.1723   12.2030 C.3     1  UNL1        0.0913
     16 C          64.9725   91.5556   12.8175 C.ar    1  UNL1       -0.0107
     17 C          65.8944   92.4917   12.0937 C.ar    1  UNL1       -0.0003
     18 C          67.2079   92.8749   12.7081 C.ar    1  UNL1        0.0366
     19 C          67.5996   92.3221   14.0464 C.ar    1  UNL1        0.1387
     20 C          66.6778   91.3861   14.7702 C.ar    1  UNL1        0.0366
     21 C          65.3642   91.0028   14.1558 C.ar    1  UNL1       -0.0003
     22 O          68.9133   92.7054   14.6609 O.3     1  UNL1       -0.4714
     23 C          68.9479   93.6331   15.8390 C.3     1  UNL1        0.2525
@<TRIPOS>BOND
     1    12    13    1
     2    13     1    1
     3     1     2   ar
     4     2    14    1
     5    14    15    1
     6    15    16    1
     7    16    17   ar
     8    17    18   ar
     9    18    19   ar
    10    19    22    1
    11    22    23    1
    12    19    20   ar
    13    20    21   ar
    14     2     3   ar
    15     3     4   ar
    16     4     5   ar
    17     5     6    1
    18     6     7   ar
    19     7     8   ar
    20     8     9   ar
    21     9    10   ar
    22    10    11   ar
    23     5     1   ar
    24    11     6   ar
    25    21    16   ar
@<TRIPOS>MOLECULE
*****
 23 25 0 0 0
SMALL
GASTEIGER

@<TRIPOS>ATOM
      1 N          62.4354   88.5306   11.4569 N.ar    1  UNL1       -0.2904
      2 C          63.2322   88.4426   12.7248 C.ar    1  UNL1        0.1935
      3 N          63.4389   86.9914   13.0427 N.ar    1  UNL1       -0.1221
      4 N          62.7699   86.1823   11.9713 N.ar    1  UNL1       -0.1282
      5 C          62.1497   87.1336   10.9912 C.ar    1  UNL1        0.1668
      6 C          61.3792   86.7544    9.7614 C.ar    1  UNL1        0.0390
      7 C          59.9706   87.2373    9.5803 C.ar    1  UNL1        0.0237
      8 C          59.2000   86.8582    8.3505 C.ar    1  UNL1        0.0990
      9 N          59.8380   85.9962    7.3018 N.ar    1  UNL1       -0.2423
     10 C          61.2466   85.5133    7.4829 C.ar    1  UNL1        0.0990
     11 C          62.0172   85.8924    8.7127 C.ar    1  UNL1        0.0237
     12 C          60.6373   90.3593   11.0416 C.3     1  UNL1        0.0266
     13 C          62.0007   89.7937   10.7746 C.3     1  UNL1        0.1095
     14 S          63.7341   89.6025   13.5329 S.3     1  UNL1       -0.0708
     15 C          63.5256   91.0045   13.0423 C.3     1  UNL1        0.0913
     16 C          64.6388   91.7283   12.3444 C.ar    1  UNL1       -0.0107
     17 C          64.5015   92.0986   10.8974 C.ar    1  UNL1       -0.0003
     18 C          65.6147   92.8223   10.1996 C.ar    1  UNL1        0.0366
     19 C          66.8652   93.1757   10.9488 C.ar    1  UNL1        0.1387
     20 C          67.0025   92.8054   12.3958 C.ar    1  UNL1        0.0366
     21 C          65.8893   92.0816   13.0936 C.ar    1  UNL1       -0.0003
     22 O          67.9784   93.8995   10.2509 O.3     1  UNL1       -0.4714
     23 C          67.6923   94.7063    9.0192 C.3     1  UNL1        0.2525
@<TRIPOS>BOND
     1    12    13    1
     2    13     1    1
     3     1     2   ar
     4     2    14    1
     5    14    15    1
     6    15    16    1
     7    16    17   ar
     8    17    18   ar
     9    18    19   ar
    10    19    22    1
    11    22    23    1
    12    19    20   ar
    13    20    21   ar
    14     2     3   ar
    15     3     4   ar
    16     4     5   ar
    17     5     6    1
    18     6     7   ar
    19     7     8   ar
    20     8     9   ar
    21     9    10   ar
    22    10    11   ar
    23     5     1   ar
    24    11     6   ar
    25    21    16   ar
@<TRIPOS>MOLECULE
*****
 23 25 0 0 0
SMALL
GASTEIGER

@<TRIPOS>ATOM
      1 N          63.3565   85.6175   13.1831 N.ar    1  UNL1       -0.2904
      2 C          63.7904   86.8365   13.9420 C.ar    1  UNL1        0.1935
      3 N          64.0959   86.4212   15.3506 N.ar    1  UNL1       -0.1221
      4 N          63.8509   84.9456   15.4624 N.ar    1  UNL1       -0.1282
      5 C          63.3939   84.4488   14.1228 C.ar    1  UNL1        0.1668
      6 C          63.0370   83.0322   13.7826 C.ar    1  UNL1        0.0390
      7 C          63.8571   82.2714   12.7832 C.ar    1  UNL1        0.0237
      8 C          63.5002   80.8548   12.4431 C.ar    1  UNL1        0.0990
      9 N          62.3232   80.1990   13.1022 N.ar    1  UNL1       -0.2423
     10 C          61.5030   80.9598   14.1015 C.ar    1  UNL1        0.0990
     11 C          61.8600   82.3764   14.4417 C.ar    1  UNL1        0.0237
     12 C          61.5542   85.9290   11.3380 C.3     1  UNL1        0.0266
     13 C          62.9557   85.5747   11.7383 C.3     1  UNL1        0.1095
     14 S          63.8996   88.2267   13.3892 S.3     1  UNL1       -0.0708
     15 C          64.3146   89.3583   14.2820 C.3     1  UNL1        0.0913
     16 C          64.8940   90.6082   13.6885 C.ar    1  UNL1       -0.0107
     17 C          66.0226   91.3136   14.3803 C.ar    1  UNL1       -0.0003
     18 C          66.6020   92.5634   13.7868 C.ar    1  UNL1        0.0366
     19 C          66.0527   93.1078   12.5015 C.ar    1  UNL1        0.1387
     20 C          64.9241   92.4024   11.8097 C.ar    1  UNL1        0.0366
     21 C          64.3448   91.1526   12.4032 C.ar    1  UNL1       -0.0003
     22 O          66.6322   94.3577   11.9080 O.3     1  UNL1       -0.4714
     23 C          66.7409   94.5003   10.4188 C.3     1  UNL1        0.2525
@<TRIPOS>BOND
     1    12    13    1
     2    13     1    1
     3     1     2   ar
     4     2    14    1
     5    14    15    1
     6    15    16    1
     7    16    17   ar
     8    17    18   ar
     9    18    19   ar
    10    19    22    1
    11    22    23    1
    12    19    20   ar
    13    20    21   ar
    14     2     3   ar
    15     3     4   ar
    16     4     5   ar
    17     5     6    1
    18     6     7   ar
    19     7     8   ar
    20     8     9   ar
    21     9    10   ar
    22    10    11   ar
    23     5     1   ar
    24    11     6   ar
    25    21    16   ar
@<TRIPOS>MOLECULE
*****
 23 25 0 0 0
SMALL
GASTEIGER

@<TRIPOS>ATOM
      1 N          65.2282   92.1673   11.9521 N.ar    1  UNL1       -0.2904
      2 C          64.9545   91.5166   13.2756 C.ar    1  UNL1        0.1935
      3 N          65.5157   92.3990   14.3510 N.ar    1  UNL1       -0.1221
      4 N          66.1363   93.5951   13.6922 N.ar    1  UNL1       -0.1282
      5 C          65.9587   93.4520   12.2096 C.ar    1  UNL1        0.1668
      6 C          66.4289   94.4230   11.1675 C.ar    1  UNL1        0.0390
      7 C          66.1249   95.8847   11.3126 C.ar    1  UNL1        0.0237
      8 C          66.5951   96.8556   10.2705 C.ar    1  UNL1        0.0990
      9 N          67.3693   96.3649    9.0832 N.ar    1  UNL1       -0.2423
     10 C          67.6734   94.9032    8.9380 C.ar    1  UNL1        0.0990
     11 C          67.2032   93.9323    9.9801 C.ar    1  UNL1        0.0237
     12 C          63.4136   91.7100   10.1500 C.3     1  UNL1        0.0266
     13 C          64.8398   91.6282   10.6074 C.3     1  UNL1        0.1095
     14 S          64.2442   90.2123   13.4866 S.3     1  UNL1       -0.0708
     15 C          62.7454   90.1612   13.4570 C.3     1  UNL1        0.0913
     16 C          62.0401   89.4965   12.3121 C.ar    1  UNL1       -0.0107
     17 C          60.6619   89.9407   11.9205 C.ar    1  UNL1       -0.0003
     18 C          59.9567   89.2760   10.7757 C.ar    1  UNL1        0.0366
     19 C          60.6296   88.1671   10.0224 C.ar    1  UNL1        0.1387
     20 C          62.0077   87.7229   10.4139 C.ar    1  UNL1        0.0366
     21 C          62.7130   88.3876   11.5587 C.ar    1  UNL1       -0.0003
     22 O          59.9243   87.5023    8.8774 O.3     1  UNL1       -0.4714
     23 C          60.5597   86.3359    8.1806 C.3     1  UNL1        0.2525
@<TRIPOS>BOND
     1    12    13    1
     2    13     1    1
     3     1     2   ar
     4     2    14    1
     5    14    15    1
     6    15    16    1
     7    16    17   ar
     8    17    18   ar
     9    18    19   ar
    10    19    22    1
    11    22    23    1
    12    19    20   ar
    13    20    21   ar
    14     2     3   ar
    15     3     4   ar
    16     4     5   ar
    17     5     6    1
    18     6     7   ar
    19     7     8   ar
    20     8     9   ar
    21     9    10   ar
    22    10    11   ar
    23     5     1   ar
    24    11     6   ar
    25    21    16   ar
