@<TRIPOS>MOLECULE
*****
 55 58 0 0 0
SMALL
GASTEIGER

@<TRIPOS>ATOM
      1 C          60.5691   88.3843    9.0906 C.3     1  UNL1        0.1041
      2 C          61.4535   86.3253   10.4052 C.2     1  UNL1        0.2405
      3 O          60.4854   86.6168   11.5132 O.2     1  UNL1       -0.2733
      4 N          61.4954   87.2091    9.1939 N.am    1  UNL1       -0.3019
      5 H          62.1308   87.0177    8.4667 H       1  UNL1        0.1495
      6 C          62.3798   85.1500   10.5085 C.3     1  UNL1        0.1510
      7 C          63.1273   85.2082   12.9961 C.2     1  UNL1        0.4023
      8 O          63.4999   86.6539   12.8503 O.2     1  UNL1       -0.2264
      9 N          62.5673   84.4563   11.8252 N.am    1  UNL1       -0.2640
     10 H          62.3227   83.5074   11.9209 H       1  UNL1        0.1532
     11 O          63.3147   84.5145   14.3128 O.3     1  UNL1       -0.4280
     12 C          63.9772   83.1697   14.3644 C.3     1  UNL1        0.2561
     13 C          62.7730   80.2440   12.1159 C.ar    1  UNL1        0.0876
     14 N          63.6729   81.4170   12.3693 N.ar    1  UNL1       -0.2433
     15 C          63.3248   81.9867   13.7125 C.ar    1  UNL1        0.1094
     16 C          62.2097   81.1659   14.2893 C.ar    1  UNL1        0.0549
     17 S          61.8687   80.0888   13.3026 S.2     1  UNL1       -0.0705
     18 C          62.6782   77.8875   11.0259 C.3     1  UNL1        0.0069
     19 C          62.7768   79.3782   10.8910 C.3     1  UNL1        0.0465
     20 C          62.8793   80.0031    9.5312 C.3     1  UNL1        0.0069
     21 C          63.1187   84.6685    9.2952 C.3     1  UNL1        0.0270
     22 C          64.1518   83.5888    9.4256 C.3     1  UNL1        0.0022
     23 C          62.8245   85.2667    7.9515 C.3     1  UNL1        0.0022
     24 C          60.7576   89.5693    9.9908 C.3     1  UNL1        0.1445
     25 O          59.9638   90.8208    9.7594 O.3     1  UNL1       -0.3813
     26 H          59.3805   90.6969    8.9944 H       1  UNL1        0.2105
     27 C          61.7400   89.5027   11.1224 C.3     1  UNL1        0.1038
     28 N          62.8381   90.5195   11.2230 N.3     1  UNL1       -0.2620
     29 C          63.2922   91.2567    9.9981 C.3     1  UNL1        0.0901
     30 C          64.3904   92.2735   10.0988 C.3     1  UNL1        0.0899
     31 N          65.0345   92.5531   11.4242 N.3     1  UNL1       -0.2661
     32 C          64.5805   91.8158   12.6491 C.3     1  UNL1        0.0980
     33 C          63.4823   90.7991   12.5485 C.3     1  UNL1        0.1510
     34 C          63.0283   90.0618   13.7734 C.2     1  UNL1        0.2383
     35 O          61.5779   89.7218   13.9496 O.2     1  UNL1       -0.2736
     36 N          64.0245   89.6647   14.8221 N.am    1  UNL1       -0.3063
     37 H          64.9763   89.8879   14.7065 H       1  UNL1        0.1493
     38 C          63.5704   88.9274   16.0470 C.3     1  UNL1        0.0569
     39 C          63.1287   90.2221   16.6625 C.3     1  UNL1        0.0196
     40 C          64.0121   87.6328   15.4315 C.3     1  UNL1        0.0196
     41 C          63.1164   88.1902   17.2719 C.3     1  UNL1        0.0196
     42 C          66.1327   93.5698   11.5248 C.3     1  UNL1        0.1008
     43 C          66.3056   94.5964   10.4449 C.ar    1  UNL1        0.0130
     44 C          67.3328   94.3902    9.3715 C.ar    1  UNL1        0.0002
     45 C          67.5056   95.4168    8.2916 C.ar    1  UNL1        0.0204
     46 C          66.6513   96.6496    8.2851 C.ar    1  UNL1        0.0989
     47 N          65.6239   96.8559    9.3585 N.ar    1  UNL1       -0.2426
     48 C          65.4511   95.8293   10.4385 C.ar    1  UNL1        0.0959
     49 C          59.4543   88.3747    8.0871 C.3     1  UNL1        0.0484
     50 C          59.4218   89.3996    6.9922 C.ar    1  UNL1       -0.0204
     51 C          60.7032   89.8944    6.3898 C.ar    1  UNL1       -0.0042
     52 C          60.6707   90.9192    5.2950 C.ar    1  UNL1       -0.0003
     53 C          59.3567   91.4493    4.8026 C.ar    1  UNL1       -0.0000
     54 C          58.0752   90.9545    5.4051 C.ar    1  UNL1       -0.0003
     55 C          58.1078   89.9296    6.4999 C.ar    1  UNL1       -0.0042
@<TRIPOS>BOND
     1    18    19    1
     2    19    20    1
     3    19    13    1
     4    13    14   ar
     5    14    15   ar
     6    15    12    1
     7    12    11    1
     8    11     7    1
     9     7     8    2
    10     7     9   am
    11     6     9    1
    12     6     2    1
    13     2     3    2
    14     2     4   am
    15     4     1    1
    16     1    49    1
    17    49    50    1
    18    50    51   ar
    19    51    52   ar
    20    52    53   ar
    21    53    54   ar
    22    54    55   ar
    23     1    24    1
    24    24    25    1
    25    24    27    1
    26    27    28    1
    27    28    29    1
    28    29    30    1
    29    30    31    1
    30    31    42    1
    31    42    43    1
    32    43    44   ar
    33    44    45   ar
    34    45    46   ar
    35    46    47   ar
    36    47    48   ar
    37    31    32    1
    38    32    33    1
    39    33    34    1
    40    34    35    2
    41    34    36   am
    42    36    38    1
    43    38    39    1
    44    38    40    1
    45    38    41    1
    46     6    21    1
    47    21    22    1
    48    21    23    1
    49    15    16   ar
    50    16    17   ar
    51    17    13   ar
    52    55    50   ar
    53    33    28    1
    54    48    43   ar
    55     9    10    1
    56     4     5    1
    57    25    26    1
    58    36    37    1
@<TRIPOS>MOLECULE
*****
 55 58 0 0 0
SMALL
GASTEIGER

@<TRIPOS>ATOM
      1 C          60.5315   88.3794    9.0635 C.3     1  UNL1        0.1041
      2 C          61.4198   86.3425   10.4097 C.2     1  UNL1        0.2405
      3 O          60.4523   86.6503   11.5138 O.2     1  UNL1       -0.2733
      4 N          61.4594   87.2071    9.1844 N.am    1  UNL1       -0.3019
      5 H          62.0944   87.0051    8.4597 H       1  UNL1        0.1495
      6 C          62.3477   85.1702   10.5306 C.3     1  UNL1        0.1510
      7 C          63.0403   85.1849   13.0347 C.2     1  UNL1        0.4023
      8 O          63.4489   86.6231   12.9132 O.2     1  UNL1       -0.2264
      9 N          62.4897   84.4584   11.8434 N.am    1  UNL1       -0.2640
     10 H          62.2215   83.5145   11.9231 H       1  UNL1        0.1532
     11 O          63.1823   84.4732   14.3474 O.3     1  UNL1       -0.4280
     12 C          63.7022   83.0667   14.3857 C.3     1  UNL1        0.2561
     13 C          60.7804   80.5306   14.0739 C.ar    1  UNL1        0.0876
     14 N          61.3188   81.8624   14.5056 N.ar    1  UNL1       -0.2433
     15 C          62.7720   81.9163   14.1379 C.ar    1  UNL1        0.1094
     16 C          63.1318   80.6177   13.4789 C.ar    1  UNL1        0.0549
     17 S          61.9009   79.7613   13.4393 S.2     1  UNL1       -0.0705
     18 C          58.2272   81.0114   14.0869 C.3     1  UNL1        0.0069
     19 C          59.3693   80.0521   14.2465 C.3     1  UNL1        0.0465
     20 C          59.1003   78.6143   14.5786 C.3     1  UNL1        0.0069
     21 C          63.1336   84.7096    9.3390 C.3     1  UNL1        0.0270
     22 C          64.1992   83.6664    9.5008 C.3     1  UNL1        0.0022
     23 C          62.8539   85.2923    7.9854 C.3     1  UNL1        0.0022
     24 C          60.6982   89.5643    9.9680 C.3     1  UNL1        0.1445
     25 O          59.9017   90.8118    9.7244 O.3     1  UNL1       -0.3813
     26 H          59.3324   90.6857    8.9493 H       1  UNL1        0.2105
     27 C          61.6614   89.5018   11.1162 C.3     1  UNL1        0.1038
     28 N          62.7807   90.4958   11.2112 N.3     1  UNL1       -0.2620
     29 C          63.2275   91.2412    9.9887 C.3     1  UNL1        0.0901
     30 C          64.3469   92.2353   10.0837 C.3     1  UNL1        0.0899
     31 N          65.0193   92.4838   11.4012 N.3     1  UNL1       -0.2661
     32 C          64.5725   91.7384   12.6238 C.3     1  UNL1        0.0980
     33 C          63.4532   90.7444   12.5288 C.3     1  UNL1        0.1510
     34 C          63.0064   89.9989   13.7514 C.2     1  UNL1        0.2383
     35 O          61.5468   89.7391   13.9797 O.2     1  UNL1       -0.2736
     36 N          64.0191   89.5132   14.7456 N.am    1  UNL1       -0.3063
     37 H          64.9771   89.6838   14.5957 H       1  UNL1        0.1493
     38 C          63.5723   88.7678   15.9681 C.3     1  UNL1        0.0569
     39 C          63.0605   90.0470   16.5611 C.3     1  UNL1        0.0196
     40 C          64.0840   87.4885   15.3751 C.3     1  UNL1        0.0196
     41 C          63.1254   88.0223   17.1907 C.3     1  UNL1        0.0196
     42 C          66.1386   93.4778   11.4962 C.3     1  UNL1        0.1008
     43 C          66.3177   94.5105   10.4231 C.ar    1  UNL1        0.0130
     44 C          67.3245   94.2923    9.3328 C.ar    1  UNL1        0.0002
     45 C          67.5036   95.3249    8.2597 C.ar    1  UNL1        0.0204
     46 C          66.6760   96.5758    8.2769 C.ar    1  UNL1        0.0989
     47 N          65.6691   96.7940    9.3672 N.ar    1  UNL1       -0.2426
     48 C          65.4900   95.7614   10.4404 C.ar    1  UNL1        0.0959
     49 C          59.4369   88.3668    8.0380 C.3     1  UNL1        0.0484
     50 C          59.4126   89.4037    6.9542 C.ar    1  UNL1       -0.0204
     51 C          58.1034   89.9577    6.4756 C.ar    1  UNL1       -0.0042
     52 C          58.0791   90.9945    5.3919 C.ar    1  UNL1       -0.0003
     53 C          59.3639   91.4772    4.7868 C.ar    1  UNL1       -0.0000
     54 C          60.6731   90.9232    5.2654 C.ar    1  UNL1       -0.0003
     55 C          60.6974   89.8864    6.3491 C.ar    1  UNL1       -0.0042
@<TRIPOS>BOND
     1    18    19    1
     2    19    20    1
     3    19    13    1
     4    13    14   ar
     5    14    15   ar
     6    15    12    1
     7    12    11    1
     8    11     7    1
     9     7     8    2
    10     7     9   am
    11     6     9    1
    12     6     2    1
    13     2     3    2
    14     2     4   am
    15     4     1    1
    16     1    49    1
    17    49    50    1
    18    50    51   ar
    19    51    52   ar
    20    52    53   ar
    21    53    54   ar
    22    54    55   ar
    23     1    24    1
    24    24    25    1
    25    24    27    1
    26    27    28    1
    27    28    29    1
    28    29    30    1
    29    30    31    1
    30    31    42    1
    31    42    43    1
    32    43    44   ar
    33    44    45   ar
    34    45    46   ar
    35    46    47   ar
    36    47    48   ar
    37    31    32    1
    38    32    33    1
    39    33    34    1
    40    34    35    2
    41    34    36   am
    42    36    38    1
    43    38    39    1
    44    38    40    1
    45    38    41    1
    46     6    21    1
    47    21    22    1
    48    21    23    1
    49    15    16   ar
    50    16    17   ar
    51    17    13   ar
    52    55    50   ar
    53    33    28    1
    54    48    43   ar
    55     9    10    1
    56     4     5    1
    57    25    26    1
    58    36    37    1
@<TRIPOS>MOLECULE
*****
 55 58 0 0 0
SMALL
GASTEIGER

@<TRIPOS>ATOM
      1 C          62.4273   90.2057   10.4529 C.3     1  UNL1        0.1041
      2 C          60.4665   88.8257    9.4521 C.2     1  UNL1        0.2405
      3 O          59.5759   89.2804   10.5701 O.2     1  UNL1       -0.2733
      4 N          61.8923   89.2883    9.3935 N.am    1  UNL1       -0.3019
      5 H          62.4769   88.9899    8.6597 H       1  UNL1        0.1495
      6 C          59.9316   87.9084    8.3927 C.3     1  UNL1        0.1510
      7 C          59.2927   89.7028    6.6258 C.2     1  UNL1        0.4023
      8 O          60.5576   90.4505    6.9279 O.2     1  UNL1       -0.2264
      9 N          58.9797   88.4318    7.3583 N.am    1  UNL1       -0.2640
     10 H          58.1495   87.9411    7.1600 H       1  UNL1        0.1532
     11 O          58.3409   90.2263    5.5914 O.3     1  UNL1       -0.4280
     12 C          58.4737   91.6354    5.0946 C.3     1  UNL1        0.2561
     13 C          61.7388   92.0931    3.0463 C.ar    1  UNL1        0.0876
     14 N          60.9811   91.4727    4.1825 N.ar    1  UNL1       -0.2433
     15 C          59.5751   91.9938    4.1414 C.ar    1  UNL1        0.1094
     16 C          59.4639   92.9364    2.9798 C.ar    1  UNL1        0.0549
     17 S          60.8011   92.9977    2.3030 S.2     1  UNL1       -0.0705
     18 C          63.8825   90.6394    3.2497 C.3     1  UNL1        0.0069
     19 C          63.1809   91.8514    2.7120 C.3     1  UNL1        0.0465
     20 C          63.9215   92.8216    1.8401 C.3     1  UNL1        0.0069
     21 C          60.3484   86.4677    8.3677 C.3     1  UNL1        0.0270
     22 C          61.0914   85.8816    9.5316 C.3     1  UNL1        0.0022
     23 C          60.0223   85.6131    7.1790 C.3     1  UNL1        0.0022
     24 C          62.4068   89.7822   11.8918 C.3     1  UNL1        0.1445
     25 O          61.1536   89.9369   12.7013 O.3     1  UNL1       -0.3813
     26 H          60.4567   90.3228   12.1479 H       1  UNL1        0.2105
     27 C          63.6396   89.2041   12.5210 C.3     1  UNL1        0.1038
     28 N          63.5722   87.8819   13.2261 N.3     1  UNL1       -0.2620
     29 C          63.2577   86.6352   12.4536 C.3     1  UNL1        0.0901
     30 C          63.1902   85.3129   13.1588 C.3     1  UNL1        0.0899
     31 N          63.4373   85.2375   14.6364 N.3     1  UNL1       -0.2661
     32 C          63.7518   86.4842   15.4088 C.3     1  UNL1        0.0980
     33 C          63.8192   87.8064   14.7037 C.3     1  UNL1        0.1510
     34 C          64.1337   89.0532   15.4762 C.2     1  UNL1        0.2383
     35 O          63.5701   89.2446   16.8531 O.2     1  UNL1       -0.2736
     36 N          65.0117   90.1085   14.8718 N.am    1  UNL1       -0.3063
     37 H          65.3816   89.9829   13.9682 H       1  UNL1        0.1493
     38 C          65.3262   91.3553   15.6443 C.3     1  UNL1        0.0569
     39 C          63.8848   91.4722   16.0425 C.3     1  UNL1        0.0196
     40 C          66.7677   91.2384   15.2461 C.3     1  UNL1        0.0196
     41 C          65.6407   92.6020   16.4168 C.3     1  UNL1        0.0196
     42 C          63.3698   83.9153   15.3415 C.3     1  UNL1        0.1008
     43 C          63.0339   82.6717   14.5729 C.ar    1  UNL1        0.0130
     44 C          61.6470   82.1037   14.6344 C.ar    1  UNL1        0.0002
     45 C          61.3111   80.8602   13.8658 C.ar    1  UNL1        0.0204
     46 C          62.3621   80.1846   13.0358 C.ar    1  UNL1        0.0989
     47 N          63.7491   80.7525   12.9743 N.ar    1  UNL1       -0.2426
     48 C          64.0850   81.9961   13.7429 C.ar    1  UNL1        0.0959
     49 C          62.9826   91.5464   10.0734 C.3     1  UNL1        0.0484
     50 C          64.2893   92.0070   10.6485 C.ar    1  UNL1       -0.0204
     51 C          64.3681   92.4329   12.0846 C.ar    1  UNL1       -0.0042
     52 C          65.6747   92.8935   12.6596 C.ar    1  UNL1       -0.0003
     53 C          66.9024   92.9282   11.7985 C.ar    1  UNL1       -0.0000
     54 C          66.8236   92.5023   10.3624 C.ar    1  UNL1       -0.0003
     55 C          65.5170   92.0417    9.7874 C.ar    1  UNL1       -0.0042
@<TRIPOS>BOND
     1    18    19    1
     2    19    20    1
     3    19    13    1
     4    13    14   ar
     5    14    15   ar
     6    15    12    1
     7    12    11    1
     8    11     7    1
     9     7     8    2
    10     7     9   am
    11     6     9    1
    12     6     2    1
    13     2     3    2
    14     2     4   am
    15     4     1    1
    16     1    49    1
    17    49    50    1
    18    50    51   ar
    19    51    52   ar
    20    52    53   ar
    21    53    54   ar
    22    54    55   ar
    23     1    24    1
    24    24    25    1
    25    24    27    1
    26    27    28    1
    27    28    29    1
    28    29    30    1
    29    30    31    1
    30    31    42    1
    31    42    43    1
    32    43    44   ar
    33    44    45   ar
    34    45    46   ar
    35    46    47   ar
    36    47    48   ar
    37    31    32    1
    38    32    33    1
    39    33    34    1
    40    34    35    2
    41    34    36   am
    42    36    38    1
    43    38    39    1
    44    38    40    1
    45    38    41    1
    46     6    21    1
    47    21    22    1
    48    21    23    1
    49    15    16   ar
    50    16    17   ar
    51    17    13   ar
    52    55    50   ar
    53    33    28    1
    54    48    43   ar
    55     9    10    1
    56     4     5    1
    57    25    26    1
    58    36    37    1
@<TRIPOS>MOLECULE
*****
 55 58 0 0 0
SMALL
GASTEIGER

@<TRIPOS>ATOM
      1 C          62.5726   85.2078   10.9782 C.3     1  UNL1        0.1041
      2 C          63.1937   85.4462   13.4897 C.2     1  UNL1        0.2405
      3 O          61.8566   84.8853   13.8736 O.2     1  UNL1       -0.2733
      4 N          63.5518   85.6075   12.0420 N.am    1  UNL1       -0.3019
      5 H          64.4294   85.9756   11.7900 H       1  UNL1        0.1495
      6 C          64.1728   85.8458   14.5535 C.3     1  UNL1        0.1510
      7 C          63.2842   87.5684   16.2835 C.2     1  UNL1        0.4023
      8 O          62.4355   86.5017   16.9096 O.2     1  UNL1       -0.2264
      9 N          64.1529   87.2405   15.1055 N.am    1  UNL1       -0.2640
     10 H          64.7099   87.9405   14.6946 H       1  UNL1        0.1532
     11 O          63.2642   88.9629   16.8355 O.3     1  UNL1       -0.4280
     12 C          63.2817   90.1386   15.9041 C.3     1  UNL1        0.2561
     13 C          66.6211   92.0316   15.3290 C.ar    1  UNL1        0.0876
     14 N          65.6978   90.8858   15.0383 N.ar    1  UNL1       -0.2433
     15 C          64.4671   91.0575   15.8785 C.ar    1  UNL1        0.1094
     16 C          64.6298   92.3095   16.6885 C.ar    1  UNL1        0.0549
     17 S          65.9611   92.9115   16.3490 S.2     1  UNL1       -0.0705
     18 C          68.9926   93.0887   15.4228 C.3     1  UNL1        0.0069
     19 C          67.9680   92.2578   14.7088 C.3     1  UNL1        0.0465
     20 C          68.2903   91.6531   13.3744 C.3     1  UNL1        0.0069
     21 C          65.1719   84.8509   15.0652 C.3     1  UNL1        0.0270
     22 C          64.7027   83.5734   15.6959 C.3     1  UNL1        0.0022
     23 C          66.6402   85.1335   14.9463 C.3     1  UNL1        0.0022
     24 C          61.7800   86.2569   10.2561 C.3     1  UNL1        0.1445
     25 O          61.5761   86.1548    8.7736 O.3     1  UNL1       -0.3813
     26 H          62.0185   85.3584    8.4404 H       1  UNL1        0.2105
     27 C          61.1912   87.4079   11.0167 C.3     1  UNL1        0.1038
     28 N          62.0087   88.6413   11.2619 N.3     1  UNL1       -0.2620
     29 C          63.1397   88.6080   12.2466 C.3     1  UNL1        0.0901
     30 C          63.9573   89.8416   12.4918 C.3     1  UNL1        0.0899
     31 N          63.6437   91.1084   11.7523 N.3     1  UNL1       -0.2661
     32 C          62.5127   91.1417   10.7676 C.3     1  UNL1        0.0980
     33 C          61.6952   89.9082   10.5224 C.3     1  UNL1        0.1510
     34 C          60.5641   89.9416    9.5377 C.2     1  UNL1        0.2383
     35 O          59.3162   90.7112    9.8547 O.2     1  UNL1       -0.2736
     36 N          60.6810   89.2053    8.2361 N.am    1  UNL1       -0.3063
     37 H          61.5000   88.7002    8.0281 H       1  UNL1        0.1493
     38 C          59.5499   89.2387    7.2514 C.3     1  UNL1        0.0569
     39 C          58.9515   88.0245    7.8976 C.3     1  UNL1        0.0196
     40 C          60.1484   90.4529    6.6052 C.3     1  UNL1        0.0196
     41 C          58.4189   89.2720    6.2667 C.3     1  UNL1        0.0196
     42 C          64.4612   92.3418   11.9976 C.3     1  UNL1        0.1008
     43 C          65.5295   92.7397   11.0227 C.ar    1  UNL1        0.0130
     44 C          66.6487   91.7918   10.7082 C.ar    1  UNL1        0.0002
     45 C          67.7169   92.1897    9.7332 C.ar    1  UNL1        0.0204
     46 C          67.6661   93.5355    9.0728 C.ar    1  UNL1        0.0989
     47 N          66.5469   94.4834    9.3872 N.ar    1  UNL1       -0.2426
     48 C          65.4786   94.0856   10.3622 C.ar    1  UNL1        0.0959
     49 C          62.3861   83.7593   10.6365 C.3     1  UNL1        0.0484
     50 C          62.8232   82.6984   11.6027 C.ar    1  UNL1       -0.0204
     51 C          64.2842   82.4345   11.8165 C.ar    1  UNL1       -0.0042
     52 C          64.7212   81.3737   12.7827 C.ar    1  UNL1       -0.0003
     53 C          63.6972   80.5768   13.5352 C.ar    1  UNL1       -0.0000
     54 C          62.2362   80.8406   13.3215 C.ar    1  UNL1       -0.0003
     55 C          61.7992   81.9014   12.3552 C.ar    1  UNL1       -0.0042
@<TRIPOS>BOND
     1    18    19    1
     2    19    20    1
     3    19    13    1
     4    13    14   ar
     5    14    15   ar
     6    15    12    1
     7    12    11    1
     8    11     7    1
     9     7     8    2
    10     7     9   am
    11     6     9    1
    12     6     2    1
    13     2     3    2
    14     2     4   am
    15     4     1    1
    16     1    49    1
    17    49    50    1
    18    50    51   ar
    19    51    52   ar
    20    52    53   ar
    21    53    54   ar
    22    54    55   ar
    23     1    24    1
    24    24    25    1
    25    24    27    1
    26    27    28    1
    27    28    29    1
    28    29    30    1
    29    30    31    1
    30    31    42    1
    31    42    43    1
    32    43    44   ar
    33    44    45   ar
    34    45    46   ar
    35    46    47   ar
    36    47    48   ar
    37    31    32    1
    38    32    33    1
    39    33    34    1
    40    34    35    2
    41    34    36   am
    42    36    38    1
    43    38    39    1
    44    38    40    1
    45    38    41    1
    46     6    21    1
    47    21    22    1
    48    21    23    1
    49    15    16   ar
    50    16    17   ar
    51    17    13   ar
    52    55    50   ar
    53    33    28    1
    54    48    43   ar
    55     9    10    1
    56     4     5    1
    57    25    26    1
    58    36    37    1
@<TRIPOS>MOLECULE
*****
 55 58 0 0 0
SMALL
GASTEIGER

@<TRIPOS>ATOM
      1 C          60.3790   88.8768    8.4010 C.3     1  UNL1        0.1041
      2 C          60.9644   86.7210    9.7278 C.2     1  UNL1        0.2405
      3 O          59.8340   86.9967   10.6745 O.2     1  UNL1       -0.2733
      4 N          61.2369   87.6611    8.5910 N.am    1  UNL1       -0.3019
      5 H          61.9788   87.4801    7.9697 H       1  UNL1        0.1495
      6 C          61.8223   85.5053    9.9178 C.3     1  UNL1        0.1510
      7 C          62.5192   85.3759   12.4173 C.2     1  UNL1        0.4023
      8 O          63.2254   86.6930   12.2886 O.2     1  UNL1       -0.2264
      9 N          61.8176   84.7820   11.2319 N.am    1  UNL1       -0.2640
     10 H          61.3541   83.9176   11.3164 H       1  UNL1        0.1532
     11 O          62.5146   84.6527   13.7314 O.3     1  UNL1       -0.4280
     12 C          63.4338   83.4876   13.9495 C.3     1  UNL1        0.2561
     13 C          62.7451   80.2215   11.9686 C.ar    1  UNL1        0.0876
     14 N          63.2669   81.6260   12.0385 N.ar    1  UNL1       -0.2433
     15 C          63.0578   82.1292   13.4360 C.ar    1  UNL1        0.1094
     16 C          62.4068   81.0357   14.2299 C.ar    1  UNL1        0.0549
     17 S          62.2135   79.8566   13.3230 S.2     1  UNL1       -0.0705
     18 C          62.8824   79.9397    9.3895 C.3     1  UNL1        0.0069
     19 C          62.7534   79.3371   10.7571 C.3     1  UNL1        0.0465
     20 C          62.6327   77.8501   10.9132 C.3     1  UNL1        0.0069
     21 C          62.6848   85.0129    8.7937 C.3     1  UNL1        0.0270
     22 C          63.9686   84.2966    9.0917 C.3     1  UNL1        0.0022
     23 C          62.2635   85.2367    7.3716 C.3     1  UNL1        0.0022
     24 C          60.5360   90.0558    9.3151 C.3     1  UNL1        0.1445
     25 O          59.3259   90.8093    9.7817 O.3     1  UNL1       -0.3813
     26 H          58.5286   90.4070    9.4031 H       1  UNL1        0.2105
     27 C          61.9030   90.4812    9.7624 C.3     1  UNL1        0.1038
     28 N          62.3105   90.3091   11.1957 N.3     1  UNL1       -0.2620
     29 C          61.4887   89.4508   12.1111 C.3     1  UNL1        0.0901
     30 C          61.8962   89.2788   13.5445 C.3     1  UNL1        0.0899
     31 N          63.1254   89.9650   14.0623 N.3     1  UNL1       -0.2661
     32 C          63.9472   90.8233   13.1468 C.3     1  UNL1        0.0980
     33 C          63.5397   90.9953   11.7135 C.3     1  UNL1        0.1510
     34 C          64.3615   91.8536   10.7981 C.2     1  UNL1        0.2383
     35 O          63.8706   92.1577    9.4136 O.2     1  UNL1       -0.2736
     36 N          65.6741   92.4078   11.2670 N.am    1  UNL1       -0.3063
     37 H          65.9963   92.2082   12.1756 H       1  UNL1        0.1493
     38 C          66.4959   93.2661   10.3515 C.3     1  UNL1        0.0569
     39 C          67.3357   92.0768    9.9904 C.3     1  UNL1        0.0196
     40 C          65.6561   94.4553   10.7126 C.3     1  UNL1        0.0196
     41 C          67.3176   94.1243    9.4360 C.3     1  UNL1        0.0196
     42 C          63.5328   89.7929   15.4956 C.3     1  UNL1        0.1008
     43 C          63.4878   88.4345   16.1302 C.ar    1  UNL1        0.0130
     44 C          62.7789   88.2407   17.4378 C.ar    1  UNL1        0.0002
     45 C          62.7338   86.8823   18.0724 C.ar    1  UNL1        0.0204
     46 C          63.3977   85.7177   17.3995 C.ar    1  UNL1        0.0989
     47 N          64.1067   85.9115   16.0918 N.ar    1  UNL1       -0.2426
     48 C          64.1517   87.2699   15.4572 C.ar    1  UNL1        0.0959
     49 C          59.3642   88.9135    7.2971 C.3     1  UNL1        0.0484
     50 C          59.4132   90.0050    6.2693 C.ar    1  UNL1       -0.0204
     51 C          58.1506   90.6987    5.8512 C.ar    1  UNL1       -0.0042
     52 C          58.1996   91.7901    4.8235 C.ar    1  UNL1       -0.0003
     53 C          59.5112   92.1880    4.2139 C.ar    1  UNL1       -0.0000
     54 C          60.7737   91.4944    4.6320 C.ar    1  UNL1       -0.0003
     55 C          60.7247   90.4029    5.6597 C.ar    1  UNL1       -0.0042
@<TRIPOS>BOND
     1    18    19    1
     2    19    20    1
     3    19    13    1
     4    13    14   ar
     5    14    15   ar
     6    15    12    1
     7    12    11    1
     8    11     7    1
     9     7     8    2
    10     7     9   am
    11     6     9    1
    12     6     2    1
    13     2     3    2
    14     2     4   am
    15     4     1    1
    16     1    49    1
    17    49    50    1
    18    50    51   ar
    19    51    52   ar
    20    52    53   ar
    21    53    54   ar
    22    54    55   ar
    23     1    24    1
    24    24    25    1
    25    24    27    1
    26    27    28    1
    27    28    29    1
    28    29    30    1
    29    30    31    1
    30    31    42    1
    31    42    43    1
    32    43    44   ar
    33    44    45   ar
    34    45    46   ar
    35    46    47   ar
    36    47    48   ar
    37    31    32    1
    38    32    33    1
    39    33    34    1
    40    34    35    2
    41    34    36   am
    42    36    38    1
    43    38    39    1
    44    38    40    1
    45    38    41    1
    46     6    21    1
    47    21    22    1
    48    21    23    1
    49    15    16   ar
    50    16    17   ar
    51    17    13   ar
    52    55    50   ar
    53    33    28    1
    54    48    43   ar
    55     9    10    1
    56     4     5    1
    57    25    26    1
    58    36    37    1
@<TRIPOS>MOLECULE
*****
 55 58 0 0 0
SMALL
GASTEIGER

@<TRIPOS>ATOM
      1 C          59.8304   88.1976    9.4467 C.3     1  UNL1        0.1041
      2 C          61.8523   86.5756    9.6227 C.2     1  UNL1        0.2405
      3 O          62.7299   87.5980    8.9635 O.2     1  UNL1       -0.2733
      4 N          60.4025   86.8754    9.8643 N.am    1  UNL1       -0.3019
      5 H          59.8266   86.2044   10.2970 H       1  UNL1        0.1495
      6 C          62.4245   85.2534   10.0402 C.3     1  UNL1        0.1510
      7 C          62.5203   85.4223   12.6311 C.2     1  UNL1        0.4023
      8 O          63.2646   86.7198   12.5189 O.2     1  UNL1       -0.2264
      9 N          62.1002   84.6891   11.3918 N.am    1  UNL1       -0.2640
     10 H          61.6117   83.8375   11.4653 H       1  UNL1        0.1532
     11 O          62.1961   84.8580   13.9825 O.3     1  UNL1       -0.4280
     12 C          62.9270   83.6485   14.4853 C.3     1  UNL1        0.2561
     13 C          62.6755   80.5291   12.1893 C.ar    1  UNL1        0.0876
     14 N          63.0650   81.9594   12.4181 N.ar    1  UNL1       -0.2433
     15 C          62.7108   82.3159   13.8315 C.ar    1  UNL1        0.1094
     16 C          62.1025   81.1058   14.4761 C.ar    1  UNL1        0.0549
     17 S          62.0806   80.0015   13.4613 S.2     1  UNL1       -0.0705
     18 C          63.2714   80.4726    9.6611 C.3     1  UNL1        0.0069
     19 C          62.8503   79.7611   10.9127 C.3     1  UNL1        0.0465
     20 C          62.6039   78.2817   10.8877 C.3     1  UNL1        0.0069
     21 C          63.3208   84.4955    9.1064 C.3     1  UNL1        0.0270
     22 C          63.1713   84.6618    7.6232 C.3     1  UNL1        0.0022
     23 C          64.3668   83.5713    9.6558 C.3     1  UNL1        0.0022
     24 C          60.1893   89.4425   10.2027 C.3     1  UNL1        0.1445
     25 O          59.5910   90.7596    9.8060 O.3     1  UNL1       -0.3813
     26 H          58.9987   90.6307    9.0487 H       1  UNL1        0.2105
     27 C          61.1466   89.3704   11.3553 C.3     1  UNL1        0.1038
     28 N          62.3658   90.2439   11.3734 N.3     1  UNL1       -0.2620
     29 C          62.7870   90.9696   10.1300 C.3     1  UNL1        0.0901
     30 C          64.0063   91.8432   10.1482 C.3     1  UNL1        0.0899
     31 N          64.8044   91.9909   11.4096 N.3     1  UNL1       -0.2661
     32 C          64.3832   91.2651   12.6529 C.3     1  UNL1        0.0980
     33 C          63.1639   90.3916   12.6348 C.3     1  UNL1        0.1510
     34 C          62.7428   89.6658   13.8781 C.2     1  UNL1        0.2383
     35 O          61.2855   89.5033   14.1945 O.2     1  UNL1       -0.2736
     36 N          63.7788   89.1025   14.8051 N.am    1  UNL1       -0.3063
     37 H          64.7352   89.2092   14.5975 H       1  UNL1        0.1493
     38 C          63.3576   88.3768   16.0484 C.3     1  UNL1        0.0569
     39 C          63.9226   87.1019   15.4957 C.3     1  UNL1        0.0196
     40 C          62.7926   89.6516   16.6012 C.3     1  UNL1        0.0196
     41 C          62.9364   87.6510   17.2918 C.3     1  UNL1        0.0196
     42 C          66.0236   92.8644   11.4277 C.3     1  UNL1        0.1008
     43 C          66.9302   92.8622   12.6228 C.ar    1  UNL1        0.0130
     44 C          66.6001   93.7090   13.8161 C.ar    1  UNL1        0.0002
     45 C          67.5066   93.7068   15.0111 C.ar    1  UNL1        0.0204
     46 C          68.7432   92.8578   15.0129 C.ar    1  UNL1        0.0989
     47 N          69.0733   92.0109   13.8196 N.ar    1  UNL1       -0.2426
     48 C          68.1668   92.0131   12.6245 C.ar    1  UNL1        0.0959
     49 C          58.8993   88.2750    8.2733 C.3     1  UNL1        0.0484
     50 C          59.1531   89.2687    7.1787 C.ar    1  UNL1       -0.0204
     51 C          58.0022   89.9732    6.5236 C.ar    1  UNL1       -0.0042
     52 C          58.2561   90.9670    5.4291 C.ar    1  UNL1       -0.0003
     53 C          59.6608   91.2562    4.9896 C.ar    1  UNL1       -0.0000
     54 C          60.8117   90.5517    5.6446 C.ar    1  UNL1       -0.0003
     55 C          60.5578   89.5580    6.7392 C.ar    1  UNL1       -0.0042
@<TRIPOS>BOND
     1    18    19    1
     2    19    20    1
     3    19    13    1
     4    13    14   ar
     5    14    15   ar
     6    15    12    1
     7    12    11    1
     8    11     7    1
     9     7     8    2
    10     7     9   am
    11     6     9    1
    12     6     2    1
    13     2     3    2
    14     2     4   am
    15     4     1    1
    16     1    49    1
    17    49    50    1
    18    50    51   ar
    19    51    52   ar
    20    52    53   ar
    21    53    54   ar
    22    54    55   ar
    23     1    24    1
    24    24    25    1
    25    24    27    1
    26    27    28    1
    27    28    29    1
    28    29    30    1
    29    30    31    1
    30    31    42    1
    31    42    43    1
    32    43    44   ar
    33    44    45   ar
    34    45    46   ar
    35    46    47   ar
    36    47    48   ar
    37    31    32    1
    38    32    33    1
    39    33    34    1
    40    34    35    2
    41    34    36   am
    42    36    38    1
    43    38    39    1
    44    38    40    1
    45    38    41    1
    46     6    21    1
    47    21    22    1
    48    21    23    1
    49    15    16   ar
    50    16    17   ar
    51    17    13   ar
    52    55    50   ar
    53    33    28    1
    54    48    43   ar
    55     9    10    1
    56     4     5    1
    57    25    26    1
    58    36    37    1
@<TRIPOS>MOLECULE
*****
 55 58 0 0 0
SMALL
GASTEIGER

@<TRIPOS>ATOM
      1 C          62.8742   85.9162    9.3232 C.3     1  UNL1        0.1041
      2 C          60.8867   87.5877    9.2449 C.2     1  UNL1        0.2405
      3 O          59.9279   86.4416    9.1142 O.2     1  UNL1       -0.2733
      4 N          62.3598   87.3251    9.3494 N.am    1  UNL1       -0.3019
      5 H          62.9891   88.0773    9.4352 H       1  UNL1        0.1495
      6 C          60.3723   88.9966    9.2712 C.3     1  UNL1        0.1510
      7 C          58.9317   89.1280    7.1131 C.2     1  UNL1        0.4023
      8 O          58.2100   87.8771    7.5187 O.2     1  UNL1       -0.2264
      9 N          60.0128   89.6877    7.9893 N.am    1  UNL1       -0.2640
     10 H          60.4865   90.5087    7.7231 H       1  UNL1        0.1532
     11 O          58.5722   89.8191    5.8313 O.3     1  UNL1       -0.4280
     12 C          58.8770   91.2771    5.6542 C.3     1  UNL1        0.2561
     13 C          61.8708   91.9498    3.2771 C.ar    1  UNL1        0.0876
     14 N          61.2702   91.2559    4.4636 N.ar    1  UNL1       -0.2433
     15 C          59.8495   91.7174    4.6004 C.ar    1  UNL1        0.1094
     16 C          59.5720   92.6965    3.4985 C.ar    1  UNL1        0.0549
     17 S          60.8212   92.8402    2.6806 S.2     1  UNL1       -0.0705
     18 C          63.8768   92.8189    1.8733 C.3     1  UNL1        0.0069
     19 C          63.2744   91.7827    2.7752 C.3     1  UNL1        0.0465
     20 C          64.0756   90.5793    3.1753 C.3     1  UNL1        0.0069
     21 C          60.2175   89.7142   10.5792 C.3     1  UNL1        0.0270
     22 C          61.0055   90.9619   10.8480 C.3     1  UNL1        0.0022
     23 C          59.2746   89.1841   11.6184 C.3     1  UNL1        0.0022
     24 C          62.7420   85.0468   10.5384 C.3     1  UNL1        0.1445
     25 O          63.2120   83.6229   10.4965 O.3     1  UNL1       -0.3813
     26 H          63.5718   83.4269    9.6173 H       1  UNL1        0.2105
     27 C          62.1398   85.6012   11.7953 C.3     1  UNL1        0.1038
     28 N          62.8721   86.6503   12.5783 N.3     1  UNL1       -0.2620
     29 C          62.8007   88.0878   12.1559 C.3     1  UNL1        0.0901
     30 C          63.5330   89.1369   12.9390 C.3     1  UNL1        0.0899
     31 N          64.3367   88.7485   14.1444 N.3     1  UNL1       -0.2661
     32 C          64.4081   87.3110   14.5669 C.3     1  UNL1        0.0980
     33 C          63.6758   86.2619   13.7839 C.3     1  UNL1        0.1510
     34 C          63.7472   84.8244   14.2063 C.2     1  UNL1        0.2383
     35 O          64.3373   84.4621   15.5370 O.2     1  UNL1       -0.2736
     36 N          63.2287   83.7491   13.2981 N.am    1  UNL1       -0.3063
     37 H          62.8414   83.9869   12.4248 H       1  UNL1        0.1493
     38 C          63.3001   82.3116   13.7206 C.3     1  UNL1        0.0569
     39 C          62.0161   82.4709   14.4796 C.3     1  UNL1        0.0196
     40 C          64.5840   82.1523   12.9615 C.3     1  UNL1        0.0196
     41 C          63.3715   80.8741   14.1430 C.3     1  UNL1        0.0196
     42 C          65.0690   89.7976   14.9274 C.3     1  UNL1        0.1008
     43 C          65.6333   90.9983   14.2277 C.ar    1  UNL1        0.0130
     44 C          64.8908   91.6151   13.0796 C.ar    1  UNL1        0.0002
     45 C          65.4552   92.8158   12.3798 C.ar    1  UNL1        0.0204
     46 C          66.7620   93.3998   12.8281 C.ar    1  UNL1        0.0989
     47 N          67.5046   92.7830   13.9763 N.ar    1  UNL1       -0.2426
     48 C          66.9403   91.5823   14.6760 C.ar    1  UNL1        0.0959
     49 C          63.5207   85.3769    8.0818 C.3     1  UNL1        0.0484
     50 C          62.6717   84.8893    6.9452 C.ar    1  UNL1       -0.0204
     51 C          61.2080   84.6387    7.1562 C.ar    1  UNL1       -0.0042
     52 C          60.3591   84.1512    6.0197 C.ar    1  UNL1       -0.0003
     53 C          60.9740   83.9143    4.6722 C.ar    1  UNL1       -0.0000
     54 C          62.4378   84.1649    4.4612 C.ar    1  UNL1       -0.0003
     55 C          63.2866   84.6524    5.5977 C.ar    1  UNL1       -0.0042
@<TRIPOS>BOND
     1    18    19    1
     2    19    20    1
     3    19    13    1
     4    13    14   ar
     5    14    15   ar
     6    15    12    1
     7    12    11    1
     8    11     7    1
     9     7     8    2
    10     7     9   am
    11     6     9    1
    12     6     2    1
    13     2     3    2
    14     2     4   am
    15     4     1    1
    16     1    49    1
    17    49    50    1
    18    50    51   ar
    19    51    52   ar
    20    52    53   ar
    21    53    54   ar
    22    54    55   ar
    23     1    24    1
    24    24    25    1
    25    24    27    1
    26    27    28    1
    27    28    29    1
    28    29    30    1
    29    30    31    1
    30    31    42    1
    31    42    43    1
    32    43    44   ar
    33    44    45   ar
    34    45    46   ar
    35    46    47   ar
    36    47    48   ar
    37    31    32    1
    38    32    33    1
    39    33    34    1
    40    34    35    2
    41    34    36   am
    42    36    38    1
    43    38    39    1
    44    38    40    1
    45    38    41    1
    46     6    21    1
    47    21    22    1
    48    21    23    1
    49    15    16   ar
    50    16    17   ar
    51    17    13   ar
    52    55    50   ar
    53    33    28    1
    54    48    43   ar
    55     9    10    1
    56     4     5    1
    57    25    26    1
    58    36    37    1
@<TRIPOS>MOLECULE
*****
 55 58 0 0 0
SMALL
GASTEIGER

@<TRIPOS>ATOM
      1 C          63.8548   90.7576   13.2871 C.3     1  UNL1        0.1041
      2 C          65.5421   92.2582   14.5722 C.2     1  UNL1        0.2405
      3 O          64.6885   92.1648   15.8021 O.2     1  UNL1       -0.2733
      4 N          65.1252   91.5547   13.3147 N.am    1  UNL1       -0.3019
      5 H          65.6855   91.6160   12.5075 H       1  UNL1        0.1495
      6 C          66.8125   93.0552   14.5998 C.3     1  UNL1        0.1510
      7 C          66.1505   94.9606   12.9623 C.2     1  UNL1        0.4023
      8 O          65.5294   93.9529   12.0409 O.2     1  UNL1       -0.2264
      9 N          66.7920   94.5118   14.2417 N.am    1  UNL1       -0.2640
     10 H          67.1997   95.1731   14.8465 H       1  UNL1        0.1532
     11 O          66.1300   96.4171   12.6042 O.3     1  UNL1       -0.4280
     12 C          66.4114   96.8470   11.1949 C.3     1  UNL1        0.2561
     13 C          67.9269   93.8604    9.2330 C.ar    1  UNL1        0.0876
     14 N          67.5106   94.5052   10.5217 N.ar    1  UNL1       -0.2433
     15 C          66.9482   95.8587   10.2024 C.ar    1  UNL1        0.1094
     16 C          67.0170   96.0503    8.7163 C.ar    1  UNL1        0.0549
     17 S          67.6218   94.8153    8.1171 S.2     1  UNL1       -0.0705
     18 C          68.5143   91.5367   10.2358 C.3     1  UNL1        0.0069
     19 C          68.5405   92.4996    9.0859 C.3     1  UNL1        0.0465
     20 C          69.1804   92.1016    7.7889 C.3     1  UNL1        0.0069
     21 C          68.1033   92.3958   14.9854 C.3     1  UNL1        0.0270
     22 C          68.4608   92.2362   16.4335 C.3     1  UNL1        0.0022
     23 C          69.0368   91.8959   13.9231 C.3     1  UNL1        0.0022
     24 C          63.8361   89.3573   13.8246 C.3     1  UNL1        0.1445
     25 O          63.9652   89.1185   15.2999 O.3     1  UNL1       -0.3813
     26 H          64.0517   89.9688   15.7587 H       1  UNL1        0.2105
     27 C          63.6882   88.1959   12.8870 C.3     1  UNL1        0.1038
     28 N          63.7423   86.7934   13.4160 N.3     1  UNL1       -0.2620
     29 C          64.5188   86.4917   14.6634 C.3     1  UNL1        0.0901
     30 C          64.5729   85.0891   15.1924 C.3     1  UNL1        0.0899
     31 N          63.8504   83.9882   14.4740 N.3     1  UNL1       -0.2661
     32 C          63.0739   84.2899   13.2266 C.3     1  UNL1        0.0980
     33 C          63.0198   85.6925   12.6976 C.3     1  UNL1        0.1510
     34 C          62.2433   85.9942   11.4502 C.2     1  UNL1        0.2383
     35 O          61.0562   86.9093   11.5087 O.2     1  UNL1       -0.2736
     36 N          62.6538   85.3807   10.1444 N.am    1  UNL1       -0.3063
     37 H          63.4329   84.7801   10.1061 H       1  UNL1        0.1493
     38 C          61.8773   85.6824    8.8970 C.3     1  UNL1        0.0569
     39 C          60.6610   85.9746    9.7248 C.3     1  UNL1        0.0196
     40 C          63.0936   85.3903    8.0692 C.3     1  UNL1        0.0196
     41 C          61.1007   85.9841    7.6496 C.3     1  UNL1        0.0196
     42 C          63.9044   82.5857   15.0030 C.3     1  UNL1        0.1008
     43 C          62.9768   81.5415   14.4561 C.ar    1  UNL1        0.0130
     44 C          61.4950   81.6842   14.6402 C.ar    1  UNL1        0.0002
     45 C          60.5673   80.6400   14.0932 C.ar    1  UNL1        0.0204
     46 C          61.1214   79.4532   13.3622 C.ar    1  UNL1        0.0989
     47 N          62.6032   79.3105   13.1781 N.ar    1  UNL1       -0.2426
     48 C          63.5309   80.3547   13.7250 C.ar    1  UNL1        0.0959
     49 C          62.6031   91.3609   12.7220 C.3     1  UNL1        0.0484
     50 C          61.9150   90.7089   11.5594 C.ar    1  UNL1       -0.0204
     51 C          60.4207   90.5787   11.5492 C.ar    1  UNL1       -0.0042
     52 C          59.7326   89.9267   10.3867 C.ar    1  UNL1       -0.0003
     53 C          60.5388   89.4050    9.2344 C.ar    1  UNL1       -0.0000
     54 C          62.0331   89.5351    9.2446 C.ar    1  UNL1       -0.0003
     55 C          62.7212   90.1871   10.4071 C.ar    1  UNL1       -0.0042
@<TRIPOS>BOND
     1    18    19    1
     2    19    20    1
     3    19    13    1
     4    13    14   ar
     5    14    15   ar
     6    15    12    1
     7    12    11    1
     8    11     7    1
     9     7     8    2
    10     7     9   am
    11     6     9    1
    12     6     2    1
    13     2     3    2
    14     2     4   am
    15     4     1    1
    16     1    49    1
    17    49    50    1
    18    50    51   ar
    19    51    52   ar
    20    52    53   ar
    21    53    54   ar
    22    54    55   ar
    23     1    24    1
    24    24    25    1
    25    24    27    1
    26    27    28    1
    27    28    29    1
    28    29    30    1
    29    30    31    1
    30    31    42    1
    31    42    43    1
    32    43    44   ar
    33    44    45   ar
    34    45    46   ar
    35    46    47   ar
    36    47    48   ar
    37    31    32    1
    38    32    33    1
    39    33    34    1
    40    34    35    2
    41    34    36   am
    42    36    38    1
    43    38    39    1
    44    38    40    1
    45    38    41    1
    46     6    21    1
    47    21    22    1
    48    21    23    1
    49    15    16   ar
    50    16    17   ar
    51    17    13   ar
    52    55    50   ar
    53    33    28    1
    54    48    43   ar
    55     9    10    1
    56     4     5    1
    57    25    26    1
    58    36    37    1
@<TRIPOS>MOLECULE
*****
 55 58 0 0 0
SMALL
GASTEIGER

@<TRIPOS>ATOM
      1 C          61.7407   89.2295   10.1585 C.3     1  UNL1        0.1041
      2 C          61.7114   86.9290   11.3655 C.2     1  UNL1        0.2405
      3 O          60.2524   87.1051   11.6658 O.2     1  UNL1       -0.2733
      4 N          62.4556   87.9912   10.6118 N.am    1  UNL1       -0.3019
      5 H          63.4132   87.8756   10.4147 H       1  UNL1        0.1495
      6 C          62.4263   85.6907   11.8188 C.3     1  UNL1        0.1510
      7 C          63.5662   86.6173   13.9618 C.2     1  UNL1        0.4023
      8 O          63.9445   87.8654   13.2208 O.2     1  UNL1       -0.2264
      9 N          62.8071   85.5299   13.2608 N.am    1  UNL1       -0.2640
     10 H          62.5588   84.7107   13.7471 H       1  UNL1        0.1532
     11 O          63.9470   86.4565   15.4037 O.3     1  UNL1       -0.4280
     12 C          63.7233   85.1452   16.0968 C.3     1  UNL1        0.2561
     13 C          62.7864   81.8718   14.2332 C.ar    1  UNL1        0.0876
     14 N          62.4137   83.0406   15.0964 N.ar    1  UNL1       -0.2433
     15 C          63.6415   83.8786   15.2972 C.ar    1  UNL1        0.1094
     16 C          64.7730   83.2278   14.5583 C.ar    1  UNL1        0.0549
     17 S          64.2446   81.9875   13.9007 S.2     1  UNL1       -0.0705
     18 C          62.3920   79.6433   12.9572 C.3     1  UNL1        0.0069
     19 C          61.8632   80.7792   13.7819 C.3     1  UNL1        0.0465
     20 C          60.4110   80.8224   14.1553 C.3     1  UNL1        0.0069
     21 C          62.7604   84.6132   10.8302 C.3     1  UNL1        0.0270
     22 C          63.4675   84.9597    9.5535 C.3     1  UNL1        0.0022
     23 C          62.3875   83.1892   11.1184 C.3     1  UNL1        0.0022
     24 C          61.9000   90.5100   10.9235 C.3     1  UNL1        0.1445
     25 O          60.7352   91.0856   11.6731 O.3     1  UNL1       -0.3813
     26 H          59.9620   90.5109   11.5600 H       1  UNL1        0.2105
     27 C          63.2240   91.2147   10.9388 C.3     1  UNL1        0.1038
     28 N          63.9252   91.4652   12.2409 N.3     1  UNL1       -0.2620
     29 C          63.4509   90.7855   13.4911 C.3     1  UNL1        0.0901
     30 C          64.1522   91.0360   14.7932 C.3     1  UNL1        0.0899
     31 N          65.3278   91.9663   14.8451 N.3     1  UNL1       -0.2661
     32 C          65.8020   92.6460   13.5949 C.3     1  UNL1        0.0980
     33 C          65.1008   92.3955   12.2928 C.3     1  UNL1        0.1510
     34 C          65.5751   93.0753   11.0426 C.2     1  UNL1        0.2383
     35 O          64.6424   93.2421    9.8796 O.2     1  UNL1       -0.2736
     36 N          66.9819   93.5882   10.9553 N.am    1  UNL1       -0.3063
     37 H          67.5940   93.4786   11.7186 H       1  UNL1        0.1493
     38 C          67.4562   94.2679    9.7051 C.3     1  UNL1        0.0569
     39 C          68.0365   92.9722    9.2208 C.3     1  UNL1        0.0196
     40 C          66.8760   95.5636   10.1895 C.3     1  UNL1        0.0196
     41 C          67.9305   94.9476    8.4549 C.3     1  UNL1        0.0196
     42 C          66.0290   92.2168   16.1472 C.3     1  UNL1        0.1008
     43 C          67.4345   92.7406   16.1534 C.ar    1  UNL1        0.0130
     44 C          68.5754   91.8233   16.4803 C.ar    1  UNL1        0.0002
     45 C          69.9809   92.3472   16.4866 C.ar    1  UNL1        0.0204
     46 C          70.2456   93.7884   16.1660 C.ar    1  UNL1        0.0989
     47 N          69.1047   94.7058   15.8391 N.ar    1  UNL1       -0.2426
     48 C          67.6991   94.1819   15.8328 C.ar    1  UNL1        0.0959
     49 C          60.8665   89.1874    8.9403 C.3     1  UNL1        0.0484
     50 C          60.5057   87.8695    8.3213 C.ar    1  UNL1       -0.0204
     51 C          59.0673   87.5295    8.0662 C.ar    1  UNL1       -0.0042
     52 C          58.7065   86.2117    7.4472 C.ar    1  UNL1       -0.0003
     53 C          59.7843   85.2339    7.0832 C.ar    1  UNL1       -0.0000
     54 C          61.2228   85.5740    7.3382 C.ar    1  UNL1       -0.0003
     55 C          61.5835   86.8918    7.9573 C.ar    1  UNL1       -0.0042
@<TRIPOS>BOND
     1    18    19    1
     2    19    20    1
     3    19    13    1
     4    13    14   ar
     5    14    15   ar
     6    15    12    1
     7    12    11    1
     8    11     7    1
     9     7     8    2
    10     7     9   am
    11     6     9    1
    12     6     2    1
    13     2     3    2
    14     2     4   am
    15     4     1    1
    16     1    49    1
    17    49    50    1
    18    50    51   ar
    19    51    52   ar
    20    52    53   ar
    21    53    54   ar
    22    54    55   ar
    23     1    24    1
    24    24    25    1
    25    24    27    1
    26    27    28    1
    27    28    29    1
    28    29    30    1
    29    30    31    1
    30    31    42    1
    31    42    43    1
    32    43    44   ar
    33    44    45   ar
    34    45    46   ar
    35    46    47   ar
    36    47    48   ar
    37    31    32    1
    38    32    33    1
    39    33    34    1
    40    34    35    2
    41    34    36   am
    42    36    38    1
    43    38    39    1
    44    38    40    1
    45    38    41    1
    46     6    21    1
    47    21    22    1
    48    21    23    1
    49    15    16   ar
    50    16    17   ar
    51    17    13   ar
    52    55    50   ar
    53    33    28    1
    54    48    43   ar
    55     9    10    1
    56     4     5    1
    57    25    26    1
    58    36    37    1
