@<TRIPOS>MOLECULE
*****
 30 34 0 0 0
SMALL
GASTEIGER

@<TRIPOS>ATOM
      1 C          63.1614   89.5102   17.1151 C.3     1  UNL1        0.0311
      2 C          63.2357   88.1066   16.5910 C.ar    1  UNL1       -0.0188
      3 C          62.8852   86.9532   17.4837 C.ar    1  UNL1       -0.0040
      4 C          62.9594   85.5497   16.9597 C.ar    1  UNL1        0.0057
      5 C          63.3843   85.2996   15.5429 C.ar    1  UNL1        0.0717
      6 C          63.5500   84.0352   14.7531 C.ar    1  UNL1        0.1704
      7 N          64.0029   84.4071   13.3724 N.ar    1  UNL1       -0.0621
      8 O          64.1171   85.9014   13.3089 O.2     1  UNL1       -0.3522
      9 C          63.7347   86.4530   14.6503 C.ar    1  UNL1        0.1777
     10 C          63.6605   87.8565   15.1744 C.ar    1  UNL1        0.0333
     11 C          64.0110   89.0099   14.2817 C.ar    1  UNL1        0.0028
     12 C          65.0733   89.9840   14.6971 C.ar    1  UNL1        0.0002
     13 C          65.4238   91.1374   13.8044 C.ar    1  UNL1        0.0029
     14 C          64.7119   91.3166   12.4963 C.ar    1  UNL1        0.0347
     15 C          65.0624   92.4701   11.6036 C.ar    1  UNL1        0.1501
     16 N          64.3506   92.6493   10.2955 N.ar    1  UNL1       -0.1331
     17 N          63.2882   91.6752    9.8801 N.ar    1  UNL1       -0.1452
     18 C          62.9377   90.5218   10.7728 C.ar    1  UNL1        0.1222
     19 C          63.6496   90.3426   12.0809 C.ar    1  UNL1        0.0237
     20 C          63.2991   89.1892   12.9736 C.ar    1  UNL1        0.0018
     21 N          66.1248   93.4441   12.0190 N.pl3   1  UNL1       -0.3183
     22 H          66.5537   93.3582   12.9010 H       1  UNL1        0.1482
     23 C          66.5336   94.5492   11.0907 C.3     1  UNL1        0.0705
     24 C          66.1268   95.9631   11.3827 C.3     1  UNL1        0.0212
     25 C          67.3492   94.2402    9.8703 C.3     1  UNL1        0.0212
     26 N          63.3057   82.6433   15.2558 N.pl3   1  UNL1       -0.3171
     27 H          63.6609   82.3667   16.1313 H       1  UNL1        0.1482
     28 C          62.5201   81.6727   14.4246 C.3     1  UNL1        0.0706
     29 C          61.2142   81.0254   14.0704 C.3     1  UNL1        0.0212
     30 C          62.4655   80.6390   13.3390 C.3     1  UNL1        0.0212
@<TRIPOS>BOND
     1     1     2    1
     2     2     3   ar
     3     3     4   ar
     4     4     5   ar
     5     5     6   ar
     6     6    26    1
     7    26    28    1
     8    28    29    1
     9    29    30    1
    10     6     7   ar
    11     7     8   ar
    12     8     9   ar
    13     9    10   ar
    14    10    11    1
    15    11    12   ar
    16    12    13   ar
    17    13    14   ar
    18    14    15   ar
    19    15    21    1
    20    21    23    1
    21    23    24    1
    22    23    25    1
    23    15    16   ar
    24    16    17   ar
    25    17    18   ar
    26    18    19   ar
    27    19    20   ar
    28    10     2   ar
    29    20    11   ar
    30     9     5   ar
    31    19    14   ar
    32    30    28    1
    33    26    27    1
    34    21    22    1
@<TRIPOS>MOLECULE
*****
 30 34 0 0 0
SMALL
GASTEIGER

@<TRIPOS>ATOM
      1 C          61.5638   90.1790   10.1939 C.3     1  UNL1        0.0311
      2 C          61.8172   88.8266   10.7910 C.ar    1  UNL1       -0.0188
      3 C          61.0175   87.6428   10.3334 C.ar    1  UNL1       -0.0040
      4 C          61.2709   86.2904   10.9305 C.ar    1  UNL1        0.0057
      5 C          62.3241   86.1216   11.9853 C.ar    1  UNL1        0.0717
      6 C          62.7944   84.9205   12.7510 C.ar    1  UNL1        0.1704
      7 N          63.8847   85.3619   13.6817 N.ar    1  UNL1       -0.0621
      8 O          64.0882   86.8358   13.4914 O.2     1  UNL1       -0.3522
      9 C          63.1237   87.3053   12.4429 C.ar    1  UNL1        0.1777
     10 C          62.8703   88.6578   11.8458 C.ar    1  UNL1        0.0333
     11 C          63.6700   89.8415   12.3034 C.ar    1  UNL1        0.0028
     12 C          64.0536   89.9745   13.7474 C.ar    1  UNL1        0.0002
     13 C          64.8532   91.1582   14.2050 C.ar    1  UNL1        0.0029
     14 C          65.2693   92.2088   13.2186 C.ar    1  UNL1        0.0347
     15 C          66.0690   93.3926   13.6762 C.ar    1  UNL1        0.1501
     16 N          66.4850   94.4432   12.6898 N.ar    1  UNL1       -0.1331
     17 N          66.1014   94.3102   11.2458 N.ar    1  UNL1       -0.1452
     18 C          65.3017   93.1265   10.7882 C.ar    1  UNL1        0.1222
     19 C          64.8857   92.0758   11.7746 C.ar    1  UNL1        0.0237
     20 C          64.0860   90.8922   11.3170 C.ar    1  UNL1        0.0018
     21 N          66.4526   93.5255   15.1202 N.pl3   1  UNL1       -0.3183
     22 H          65.7960   93.8549   15.7756 H       1  UNL1        0.1482
     23 C          67.8367   93.1567   15.5656 C.3     1  UNL1        0.0705
     24 C          68.2468   91.7150   15.6232 C.3     1  UNL1        0.0212
     25 C          68.8106   94.2296   15.9534 C.3     1  UNL1        0.0212
     26 N          62.2670   83.5234   12.6104 N.pl3   1  UNL1       -0.3171
     27 H          61.4905   83.2345   13.1423 H       1  UNL1        0.1482
     28 C          62.9226   82.5663   11.6595 C.3     1  UNL1        0.0706
     29 C          63.1324   81.1660   11.1644 C.3     1  UNL1        0.0212
     30 C          63.8482   82.3089   10.5076 C.3     1  UNL1        0.0212
@<TRIPOS>BOND
     1     1     2    1
     2     2     3   ar
     3     3     4   ar
     4     4     5   ar
     5     5     6   ar
     6     6    26    1
     7    26    28    1
     8    28    29    1
     9    29    30    1
    10     6     7   ar
    11     7     8   ar
    12     8     9   ar
    13     9    10   ar
    14    10    11    1
    15    11    12   ar
    16    12    13   ar
    17    13    14   ar
    18    14    15   ar
    19    15    21    1
    20    21    23    1
    21    23    24    1
    22    23    25    1
    23    15    16   ar
    24    16    17   ar
    25    17    18   ar
    26    18    19   ar
    27    19    20   ar
    28    10     2   ar
    29    20    11   ar
    30     9     5   ar
    31    19    14   ar
    32    30    28    1
    33    26    27    1
    34    21    22    1
@<TRIPOS>MOLECULE
*****
 30 34 0 0 0
SMALL
GASTEIGER

@<TRIPOS>ATOM
      1 C          63.0245   89.6640   17.2712 C.3     1  UNL1        0.0311
      2 C          63.1396   88.2696   16.7306 C.ar    1  UNL1       -0.0188
      3 C          62.5981   87.1130   17.5176 C.ar    1  UNL1       -0.0040
      4 C          62.7131   85.7186   16.9770 C.ar    1  UNL1        0.0057
      5 C          63.3697   85.4807   15.6494 C.ar    1  UNL1        0.0717
      6 C          63.6260   84.2270   14.8667 C.ar    1  UNL1        0.1704
      7 N          64.3259   84.6087   13.5962 N.ar    1  UNL1       -0.0621
      8 O          64.5021   86.0983   13.5935 O.2     1  UNL1       -0.3522
      9 C          63.9111   86.6372   14.8625 C.ar    1  UNL1        0.1777
     10 C          63.7961   88.0316   15.4031 C.ar    1  UNL1        0.0333
     11 C          64.3375   89.1882   14.6161 C.ar    1  UNL1        0.0028
     12 C          63.6766   89.5975   13.3333 C.ar    1  UNL1        0.0002
     13 C          64.2181   90.7540   12.5464 C.ar    1  UNL1        0.0029
     14 C          65.4205   91.5012   13.0423 C.ar    1  UNL1        0.0347
     15 C          65.9620   92.6577   12.2554 C.ar    1  UNL1        0.1501
     16 N          67.1644   93.4049   12.7513 N.ar    1  UNL1       -0.1331
     17 N          67.8253   92.9956   14.0342 N.ar    1  UNL1       -0.1452
     18 C          67.2838   91.8391   14.8211 C.ar    1  UNL1        0.1222
     19 C          66.0814   91.0919   14.3251 C.ar    1  UNL1        0.0237
     20 C          65.5399   89.9354   15.1120 C.ar    1  UNL1        0.0018
     21 N          65.3011   93.0670   10.9726 N.pl3   1  UNL1       -0.3183
     22 H          64.4919   92.5986   10.6645 H       1  UNL1        0.1482
     23 C          65.8733   94.1900   10.1591 C.3     1  UNL1        0.0705
     24 C          67.0035   93.9275    9.2086 C.3     1  UNL1        0.0212
     25 C          65.3151   95.5755   10.2963 C.3     1  UNL1        0.0212
     26 N          63.2487   82.8359   15.2818 N.pl3   1  UNL1       -0.3171
     27 H          63.5117   82.4983   16.1685 H       1  UNL1        0.1482
     28 C          62.4707   81.9589   14.3460 C.3     1  UNL1        0.0706
     29 C          61.2372   81.1646   14.0336 C.3     1  UNL1        0.0212
     30 C          62.3566   81.2344   13.0376 C.3     1  UNL1        0.0212
@<TRIPOS>BOND
     1     1     2    1
     2     2     3   ar
     3     3     4   ar
     4     4     5   ar
     5     5     6   ar
     6     6    26    1
     7    26    28    1
     8    28    29    1
     9    29    30    1
    10     6     7   ar
    11     7     8   ar
    12     8     9   ar
    13     9    10   ar
    14    10    11    1
    15    11    12   ar
    16    12    13   ar
    17    13    14   ar
    18    14    15   ar
    19    15    21    1
    20    21    23    1
    21    23    24    1
    22    23    25    1
    23    15    16   ar
    24    16    17   ar
    25    17    18   ar
    26    18    19   ar
    27    19    20   ar
    28    10     2   ar
    29    20    11   ar
    30     9     5   ar
    31    19    14   ar
    32    30    28    1
    33    26    27    1
    34    21    22    1
@<TRIPOS>MOLECULE
*****
 30 34 0 0 0
SMALL
GASTEIGER

@<TRIPOS>ATOM
      1 C          61.3663   89.5741    9.6183 C.3     1  UNL1        0.0311
      2 C          61.6877   88.3795   10.4666 C.ar    1  UNL1       -0.0188
      3 C          60.9556   87.0880   10.2513 C.ar    1  UNL1       -0.0040
      4 C          61.2771   85.8933   11.0996 C.ar    1  UNL1        0.0057
      5 C          62.3305   85.9902   12.1631 C.ar    1  UNL1        0.0717
      6 C          62.8592   84.9883   13.1463 C.ar    1  UNL1        0.1704
      7 N          63.9179   85.6605   13.9691 N.ar    1  UNL1       -0.0621
      8 O          64.0435   87.0779   13.4945 O.2     1  UNL1       -0.3522
      9 C          63.0624   87.2816   12.3783 C.ar    1  UNL1        0.1777
     10 C          62.7410   88.4763   11.5300 C.ar    1  UNL1        0.0333
     11 C          63.4731   89.7678   11.7453 C.ar    1  UNL1        0.0028
     12 C          63.6241   90.7417   10.6146 C.ar    1  UNL1        0.0002
     13 C          64.3561   92.0331   10.8299 C.ar    1  UNL1        0.0029
     14 C          64.9370   92.3506   12.1759 C.ar    1  UNL1        0.0347
     15 C          65.6690   93.6421   12.3912 C.ar    1  UNL1        0.1501
     16 N          66.2500   93.9595   13.7372 N.ar    1  UNL1       -0.1331
     17 N          66.0990   92.9855   14.8679 N.ar    1  UNL1       -0.1452
     18 C          65.3670   91.6940   14.6526 C.ar    1  UNL1        0.1222
     19 C          64.7860   91.3766   13.3066 C.ar    1  UNL1        0.0237
     20 C          64.0540   90.0852   13.0913 C.ar    1  UNL1        0.0018
     21 N          65.8201   94.6160   11.2605 N.pl3   1  UNL1       -0.3183
     22 H          65.1877   95.3649   11.1681 H       1  UNL1        0.1482
     23 C          66.9346   94.4490   10.2704 C.3     1  UNL1        0.0705
     24 C          67.6325   93.1274   10.1428 C.3     1  UNL1        0.0212
     25 C          67.3511   95.6035    9.4082 C.3     1  UNL1        0.0212
     26 N          62.4083   83.5642   13.2826 N.pl3   1  UNL1       -0.3171
     27 H          61.8326   83.3002   14.0363 H       1  UNL1        0.1482
     28 C          62.8347   82.5423   12.2707 C.3     1  UNL1        0.0706
     29 C          62.8668   81.1202   11.7947 C.3     1  UNL1        0.0212
     30 C          63.5409   82.1946   10.9939 C.3     1  UNL1        0.0212
@<TRIPOS>BOND
     1     1     2    1
     2     2     3   ar
     3     3     4   ar
     4     4     5   ar
     5     5     6   ar
     6     6    26    1
     7    26    28    1
     8    28    29    1
     9    29    30    1
    10     6     7   ar
    11     7     8   ar
    12     8     9   ar
    13     9    10   ar
    14    10    11    1
    15    11    12   ar
    16    12    13   ar
    17    13    14   ar
    18    14    15   ar
    19    15    21    1
    20    21    23    1
    21    23    24    1
    22    23    25    1
    23    15    16   ar
    24    16    17   ar
    25    17    18   ar
    26    18    19   ar
    27    19    20   ar
    28    10     2   ar
    29    20    11   ar
    30     9     5   ar
    31    19    14   ar
    32    30    28    1
    33    26    27    1
    34    21    22    1
@<TRIPOS>MOLECULE
*****
 30 34 0 0 0
SMALL
GASTEIGER

@<TRIPOS>ATOM
      1 C          63.1476   89.2438   11.9972 C.3     1  UNL1        0.0311
      2 C          62.1585   89.0565   10.8852 C.ar    1  UNL1       -0.0188
      3 C          61.5692   90.2517   10.1964 C.ar    1  UNL1       -0.0040
      4 C          60.5801   90.0645    9.0844 C.ar    1  UNL1        0.0057
      5 C          60.1803   88.6820    8.6611 C.ar    1  UNL1        0.0717
      6 C          59.2356   88.1894    7.6052 C.ar    1  UNL1        0.1704
      7 N          59.2410   86.6900    7.6414 N.ar    1  UNL1       -0.0621
      8 O          60.1891   86.2558    8.7196 O.2     1  UNL1       -0.3522
      9 C          60.7696   87.4869    9.3498 C.ar    1  UNL1        0.1777
     10 C          61.7587   87.6742   10.4618 C.ar    1  UNL1        0.0333
     11 C          62.3481   86.4790   11.1506 C.ar    1  UNL1        0.0028
     12 C          62.5286   85.1936   10.3989 C.ar    1  UNL1        0.0002
     13 C          63.1179   83.9984   11.0876 C.ar    1  UNL1        0.0029
     14 C          63.5267   84.0888   12.5280 C.ar    1  UNL1        0.0347
     15 C          64.1160   82.8936   13.2167 C.ar    1  UNL1        0.1501
     16 N          64.5248   82.9839   14.6571 N.ar    1  UNL1       -0.1331
     17 N          64.3443   84.2694   15.4088 N.ar    1  UNL1       -0.1452
     18 C          63.7550   85.4645   14.7201 C.ar    1  UNL1        0.1222
     19 C          63.3462   85.3742   13.2797 C.ar    1  UNL1        0.0237
     20 C          62.7569   86.5693   12.5910 C.ar    1  UNL1        0.0018
     21 N          64.2966   81.6081   12.4650 N.pl3   1  UNL1       -0.3183
     22 H          65.1935   81.3356   12.1642 H       1  UNL1        0.1482
     23 C          63.1105   80.7379   12.1716 C.3     1  UNL1        0.0705
     24 C          62.8565   80.2633   10.7716 C.3     1  UNL1        0.0212
     25 C          62.1785   80.3423   13.2784 C.3     1  UNL1        0.0212
     26 N          58.4273   89.0461    6.6763 N.pl3   1  UNL1       -0.3171
     27 H          57.4577   88.8990    6.5895 H       1  UNL1        0.1482
     28 C          59.0963   90.1267    5.8797 C.3     1  UNL1        0.0706
     29 C          59.0212   91.4241    5.1307 C.3     1  UNL1        0.0212
     30 C          60.3301   90.7010    5.2488 C.3     1  UNL1        0.0212
@<TRIPOS>BOND
     1     1     2    1
     2     2     3   ar
     3     3     4   ar
     4     4     5   ar
     5     5     6   ar
     6     6    26    1
     7    26    28    1
     8    28    29    1
     9    29    30    1
    10     6     7   ar
    11     7     8   ar
    12     8     9   ar
    13     9    10   ar
    14    10    11    1
    15    11    12   ar
    16    12    13   ar
    17    13    14   ar
    18    14    15   ar
    19    15    21    1
    20    21    23    1
    21    23    24    1
    22    23    25    1
    23    15    16   ar
    24    16    17   ar
    25    17    18   ar
    26    18    19   ar
    27    19    20   ar
    28    10     2   ar
    29    20    11   ar
    30     9     5   ar
    31    19    14   ar
    32    30    28    1
    33    26    27    1
    34    21    22    1
@<TRIPOS>MOLECULE
*****
 30 34 0 0 0
SMALL
GASTEIGER

@<TRIPOS>ATOM
      1 C          62.8744   87.8565   13.3733 C.3     1  UNL1        0.0311
      2 C          63.6211   89.1464   13.2044 C.ar    1  UNL1       -0.0188
      3 C          64.5772   89.6041   14.2658 C.ar    1  UNL1       -0.0040
      4 C          65.3239   90.8940   14.0969 C.ar    1  UNL1        0.0057
      5 C          65.1146   91.7263   12.8666 C.ar    1  UNL1        0.0717
      6 C          65.7051   93.0329   12.4263 C.ar    1  UNL1        0.1704
      7 N          65.1140   93.3828   11.0929 N.ar    1  UNL1       -0.0621
      8 O          64.1582   92.2924   10.7091 O.2     1  UNL1       -0.3522
      9 C          64.1585   91.2686   11.8053 C.ar    1  UNL1        0.1777
     10 C          63.4118   89.9787   11.9742 C.ar    1  UNL1        0.0333
     11 C          62.4557   89.5210   10.9128 C.ar    1  UNL1        0.0028
     12 C          61.4137   90.4624   10.3856 C.ar    1  UNL1        0.0002
     13 C          60.4577   90.0047    9.3242 C.ar    1  UNL1        0.0029
     14 C          60.5437   88.6057    8.7900 C.ar    1  UNL1        0.0347
     15 C          59.5876   88.1481    7.7286 C.ar    1  UNL1        0.1501
     16 N          59.6736   86.7491    7.1944 N.ar    1  UNL1       -0.1331
     17 N          60.7158   85.8077    7.7216 N.ar    1  UNL1       -0.1452
     18 C          61.6718   86.2654    8.7830 C.ar    1  UNL1        0.1222
     19 C          61.5857   87.6644    9.3172 C.ar    1  UNL1        0.0237
     20 C          62.5418   88.1220   10.3786 C.ar    1  UNL1        0.0018
     21 N          58.5456   89.0894    7.2015 N.pl3   1  UNL1       -0.3183
     22 H          57.6428   89.0943    7.5942 H       1  UNL1        0.1482
     23 C          58.8790   90.0233    6.0759 C.3     1  UNL1        0.0705
     24 C          57.7904   90.8057    5.4031 C.3     1  UNL1        0.0212
     25 C          60.3010   90.1748    5.6233 C.3     1  UNL1        0.0212
     26 N          66.7102   93.8468   13.1861 N.pl3   1  UNL1       -0.3171
     27 H          66.9411   94.7538   12.8808 H       1  UNL1        0.1482
     28 C          67.3636   93.2787   14.4110 C.3     1  UNL1        0.0706
     29 C          67.3923   93.0895   15.8988 C.3     1  UNL1        0.0212
     30 C          68.4665   92.4838   15.0448 C.3     1  UNL1        0.0212
@<TRIPOS>BOND
     1     1     2    1
     2     2     3   ar
     3     3     4   ar
     4     4     5   ar
     5     5     6   ar
     6     6    26    1
     7    26    28    1
     8    28    29    1
     9    29    30    1
    10     6     7   ar
    11     7     8   ar
    12     8     9   ar
    13     9    10   ar
    14    10    11    1
    15    11    12   ar
    16    12    13   ar
    17    13    14   ar
    18    14    15   ar
    19    15    21    1
    20    21    23    1
    21    23    24    1
    22    23    25    1
    23    15    16   ar
    24    16    17   ar
    25    17    18   ar
    26    18    19   ar
    27    19    20   ar
    28    10     2   ar
    29    20    11   ar
    30     9     5   ar
    31    19    14   ar
    32    30    28    1
    33    26    27    1
    34    21    22    1
@<TRIPOS>MOLECULE
*****
 30 34 0 0 0
SMALL
GASTEIGER

@<TRIPOS>ATOM
      1 C          62.5442   89.1971   15.8749 C.3     1  UNL1        0.0311
      2 C          63.5362   90.2220   15.4108 C.ar    1  UNL1       -0.0188
      3 C          64.2075   91.1208   16.4066 C.ar    1  UNL1       -0.0040
      4 C          65.1995   92.1458   15.9424 C.ar    1  UNL1        0.0057
      5 C          65.5202   92.2719   14.4825 C.ar    1  UNL1        0.0717
      6 C          66.4484   93.1817   13.7337 C.ar    1  UNL1        0.1704
      7 N          66.3507   92.8452   12.2752 N.ar    1  UNL1       -0.0621
      8 O          65.3621   91.7274   12.1226 O.2     1  UNL1       -0.3522
      9 C          64.8488   91.3731   13.4868 C.ar    1  UNL1        0.1777
     10 C          63.8568   90.3482   13.9509 C.ar    1  UNL1        0.0333
     11 C          63.1855   89.4494   12.9551 C.ar    1  UNL1        0.0028
     12 C          63.5014   87.9832   12.9357 C.ar    1  UNL1        0.0002
     13 C          62.8301   87.0845   11.9400 C.ar    1  UNL1        0.0029
     14 C          61.8428   87.6519   10.9636 C.ar    1  UNL1        0.0347
     15 C          61.1715   86.7531    9.9678 C.ar    1  UNL1        0.1501
     16 N          60.1842   87.3206    8.9915 N.ar    1  UNL1       -0.1331
     17 N          59.8683   88.7869    9.0109 N.ar    1  UNL1       -0.1452
     18 C          60.5396   89.6856   10.0067 C.ar    1  UNL1        0.1222
     19 C          61.5269   89.1181   10.9830 C.ar    1  UNL1        0.0237
     20 C          62.1982   90.0168   11.9788 C.ar    1  UNL1        0.0018
     21 N          61.4874   85.2869    9.9485 N.pl3   1  UNL1       -0.3183
     22 H          60.8745   84.6456   10.3755 H       1  UNL1        0.1482
     23 C          62.7372   84.7978    9.2784 C.3     1  UNL1        0.0705
     24 C          63.6589   83.8615   10.0020 C.3     1  UNL1        0.0212
     25 C          63.0652   85.2450    7.8847 C.3     1  UNL1        0.0212
     26 N          67.3210   94.2418   14.3374 N.pl3   1  UNL1       -0.3171
     27 H          67.2226   95.1799   14.0554 H       1  UNL1        0.1482
     28 C          68.3437   93.8727   15.3708 C.3     1  UNL1        0.0706
     29 C          69.0335   92.8319   16.2019 C.3     1  UNL1        0.0212
     30 C          69.4251   94.2742   16.3296 C.3     1  UNL1        0.0212
@<TRIPOS>BOND
     1     1     2    1
     2     2     3   ar
     3     3     4   ar
     4     4     5   ar
     5     5     6   ar
     6     6    26    1
     7    26    28    1
     8    28    29    1
     9    29    30    1
    10     6     7   ar
    11     7     8   ar
    12     8     9   ar
    13     9    10   ar
    14    10    11    1
    15    11    12   ar
    16    12    13   ar
    17    13    14   ar
    18    14    15   ar
    19    15    21    1
    20    21    23    1
    21    23    24    1
    22    23    25    1
    23    15    16   ar
    24    16    17   ar
    25    17    18   ar
    26    18    19   ar
    27    19    20   ar
    28    10     2   ar
    29    20    11   ar
    30     9     5   ar
    31    19    14   ar
    32    30    28    1
    33    26    27    1
    34    21    22    1
@<TRIPOS>MOLECULE
*****
 30 34 0 0 0
SMALL
GASTEIGER

@<TRIPOS>ATOM
      1 C          64.3943   87.1592   14.3755 C.3     1  UNL1        0.0311
      2 C          63.5080   87.2404   13.1681 C.ar    1  UNL1       -0.0188
      3 C          62.7714   86.0222   12.6951 C.ar    1  UNL1       -0.0040
      4 C          61.8851   86.1034   11.4877 C.ar    1  UNL1        0.0057
      5 C          61.7354   87.4027   10.7532 C.ar    1  UNL1        0.0717
      6 C          60.9389   87.7844    9.5408 C.ar    1  UNL1        0.1704
      7 N          61.1832   89.2382    9.2644 N.ar    1  UNL1       -0.0621
      8 O          62.1307   89.7552   10.3061 O.2     1  UNL1       -0.3522
      9 C          62.4720   88.6208   11.2262 C.ar    1  UNL1        0.1777
     10 C          63.3583   88.5396   12.4336 C.ar    1  UNL1        0.0333
     11 C          64.0949   89.7578   12.9066 C.ar    1  UNL1        0.0028
     12 C          64.5556   89.8497   14.3311 C.ar    1  UNL1        0.0002
     13 C          65.2921   91.0678   14.8039 C.ar    1  UNL1        0.0029
     14 C          65.5680   92.1940   13.8523 C.ar    1  UNL1        0.0347
     15 C          66.3046   93.4121   14.3253 C.ar    1  UNL1        0.1501
     16 N          66.5805   94.5383   13.3736 N.ar    1  UNL1       -0.1331
     17 N          66.1197   94.4463   11.9490 N.ar    1  UNL1       -0.1452
     18 C          65.3832   93.2282   11.4762 C.ar    1  UNL1        0.1222
     19 C          65.1073   92.1020   12.4278 C.ar    1  UNL1        0.0237
     20 C          64.3708   90.8839   11.9549 C.ar    1  UNL1        0.0018
     21 N          66.7653   93.5040   15.7498 N.pl3   1  UNL1       -0.3183
     22 H          66.1136   93.6740   16.4679 H       1  UNL1        0.1482
     23 C          68.2189   93.3370   16.0802 C.3     1  UNL1        0.0705
     24 C          68.7583   91.9810   16.4268 C.3     1  UNL1        0.0212
     25 C          69.1331   94.5262   16.0640 C.3     1  UNL1        0.0212
     26 N          60.0536   86.8722    8.7446 N.pl3   1  UNL1       -0.3171
     27 H          59.0753   86.9303    8.8385 H       1  UNL1        0.1482
     28 C          60.6587   85.8715    7.8052 C.3     1  UNL1        0.0706
     29 C          60.5078   84.8807    6.6892 C.3     1  UNL1        0.0212
     30 C          61.8577   85.1289    7.2943 C.3     1  UNL1        0.0212
@<TRIPOS>BOND
     1     1     2    1
     2     2     3   ar
     3     3     4   ar
     4     4     5   ar
     5     5     6   ar
     6     6    26    1
     7    26    28    1
     8    28    29    1
     9    29    30    1
    10     6     7   ar
    11     7     8   ar
    12     8     9   ar
    13     9    10   ar
    14    10    11    1
    15    11    12   ar
    16    12    13   ar
    17    13    14   ar
    18    14    15   ar
    19    15    21    1
    20    21    23    1
    21    23    24    1
    22    23    25    1
    23    15    16   ar
    24    16    17   ar
    25    17    18   ar
    26    18    19   ar
    27    19    20   ar
    28    10     2   ar
    29    20    11   ar
    30     9     5   ar
    31    19    14   ar
    32    30    28    1
    33    26    27    1
    34    21    22    1
@<TRIPOS>MOLECULE
*****
 30 34 0 0 0
SMALL
GASTEIGER

@<TRIPOS>ATOM
      1 C          61.6110   88.2271    9.8645 C.3     1  UNL1        0.0311
      2 C          62.4475   89.2023   10.6385 C.ar    1  UNL1       -0.0188
      3 C          62.5451   90.6298   10.1880 C.ar    1  UNL1       -0.0040
      4 C          63.3816   91.6050   10.9620 C.ar    1  UNL1        0.0057
      5 C          64.1206   91.1528   12.1866 C.ar    1  UNL1        0.0717
      6 C          65.0159   91.8810   13.1448 C.ar    1  UNL1        0.1704
      7 N          65.4716   90.9038   14.1874 N.ar    1  UNL1       -0.0621
      8 O          64.8580   89.5715   13.8736 O.2     1  UNL1       -0.3522
      9 C          64.0231   89.7254   12.6370 C.ar    1  UNL1        0.1777
     10 C          63.1865   88.7502   11.8630 C.ar    1  UNL1        0.0333
     11 C          63.0890   87.3227   12.3135 C.ar    1  UNL1        0.0028
     12 C          62.3819   86.3131   11.4587 C.ar    1  UNL1        0.0002
     13 C          62.2844   84.8857   11.9092 C.ar    1  UNL1        0.0029
     14 C          62.8939   84.4679   13.2146 C.ar    1  UNL1        0.0347
     15 C          62.7964   83.0404   13.6651 C.ar    1  UNL1        0.1501
     16 N          63.4060   82.6227   14.9704 N.ar    1  UNL1       -0.1331
     17 N          64.1131   83.6323   15.8252 N.ar    1  UNL1       -0.1452
     18 C          64.2106   85.0597   15.3747 C.ar    1  UNL1        0.1222
     19 C          63.6010   85.4775   14.0694 C.ar    1  UNL1        0.0237
     20 C          63.6985   86.9049   13.6188 C.ar    1  UNL1        0.0018
     21 N          62.0893   82.0309   12.8103 N.pl3   1  UNL1       -0.3183
     22 H          61.9056   82.2296   11.8637 H       1  UNL1        0.1482
     23 C          61.6621   80.7184   13.3977 C.3     1  UNL1        0.0705
     24 C          60.3661   80.6180   14.1461 C.3     1  UNL1        0.0212
     25 C          62.5310   79.5063   13.2365 C.3     1  UNL1        0.0212
     26 N          65.3898   93.3319   13.0729 N.pl3   1  UNL1       -0.3171
     27 H          65.2438   93.9170   13.8511 H       1  UNL1        0.1482
     28 C          65.9861   93.8913   11.8154 C.3     1  UNL1        0.0706
     29 C          66.5369   93.6854   10.4354 C.3     1  UNL1        0.0212
     30 C          66.4682   95.0663   11.0172 C.3     1  UNL1        0.0212
@<TRIPOS>BOND
     1     1     2    1
     2     2     3   ar
     3     3     4   ar
     4     4     5   ar
     5     5     6   ar
     6     6    26    1
     7    26    28    1
     8    28    29    1
     9    29    30    1
    10     6     7   ar
    11     7     8   ar
    12     8     9   ar
    13     9    10   ar
    14    10    11    1
    15    11    12   ar
    16    12    13   ar
    17    13    14   ar
    18    14    15   ar
    19    15    21    1
    20    21    23    1
    21    23    24    1
    22    23    25    1
    23    15    16   ar
    24    16    17   ar
    25    17    18   ar
    26    18    19   ar
    27    19    20   ar
    28    10     2   ar
    29    20    11   ar
    30     9     5   ar
    31    19    14   ar
    32    30    28    1
    33    26    27    1
    34    21    22    1
