@<TRIPOS>MOLECULE
*****
 28 30 0 0 0
SMALL
GASTEIGER

@<TRIPOS>ATOM
      1 C          61.0112   86.6482   10.5958 C.ar    1  UNL1        0.2446
      2 N          60.7026   85.8927    9.3372 N.ar    1  UNL1       -0.2078
      3 C          60.1329   86.6125    8.1509 C.ar    1  UNL1        0.1135
      4 C          59.8718   88.0879    8.2231 C.ar    1  UNL1        0.0783
      5 CL         59.3022   88.8077    7.0368 Cl      1  UNL1       -0.0806
      6 C          60.1804   88.8434    9.4817 C.ar    1  UNL1        0.0336
      7 C          60.7501   88.1236   10.6680 C.ar    1  UNL1        0.1190
      8 N          61.0586   88.8791   11.9266 N.pl3   1  UNL1       -0.2104
      9 H          60.4879   88.7664   12.7208 H       1  UNL1        0.1739
     10 S          62.2367   89.8063   11.9750 S.O2    1  UNL1        0.0737
     11 O          63.0555   88.7318   12.6270 O.2     1  UNL1       -0.1499
     12 O          61.4179   90.8807   11.3230 O.2     1  UNL1       -0.1499
     13 C          63.4148   90.7335   12.0235 C.ar    1  UNL1        0.1261
     14 C          63.8121   91.5059   10.8006 C.ar    1  UNL1        0.0211
     15 C          64.9902   92.4331   10.8491 C.ar    1  UNL1        0.0136
     16 C          65.7711   92.5879   12.1204 C.ar    1  UNL1        0.0683
     17 CL         66.9492   93.5150   12.1689 Cl      1  UNL1       -0.0814
     18 C          65.3738   91.8154   13.3433 C.ar    1  UNL1        0.0695
     19 CL         66.1547   91.9701   14.6147 Cl      1  UNL1       -0.0813
     20 C          64.1957   90.8882   13.2949 C.ar    1  UNL1        0.0324
     21 O          61.5808   85.9284   11.7821 O.3     1  UNL1       -0.4338
     22 C          62.4507   84.2633   14.1210 C.3     1  UNL1        0.0554
     23 C          62.9841   83.9681   12.7505 C.ar    1  UNL1        0.0938
     24 N          63.9525   82.8403   12.5495 N.ar    1  UNL1       -0.2451
     25 C          64.4859   82.5451   11.1790 C.ar    1  UNL1        0.0987
     26 C          64.0510   83.3777   10.0095 C.ar    1  UNL1        0.0238
     27 C          63.0827   84.5054   10.2106 C.ar    1  UNL1        0.0404
     28 C          62.5492   84.8006   11.5811 C.ar    1  UNL1        0.1607
@<TRIPOS>BOND
     1    22    23    1
     2    23    24   ar
     3    24    25   ar
     4    25    26   ar
     5    26    27   ar
     6    27    28   ar
     7    28    21    1
     8    21     1    1
     9     1     2   ar
    10     2     3   ar
    11     3     4   ar
    12     4     5    1
    13     4     6   ar
    14     6     7   ar
    15     7     8    1
    16     8    10    1
    17    10    11    2
    18    10    12    2
    19    10    13    1
    20    13    14   ar
    21    14    15   ar
    22    15    16   ar
    23    16    17    1
    24    16    18   ar
    25    18    19    1
    26    18    20   ar
    27    28    23   ar
    28     7     1   ar
    29    20    13   ar
    30     8     9    1
@<TRIPOS>MOLECULE
*****
 28 30 0 0 0
SMALL
GASTEIGER

@<TRIPOS>ATOM
      1 C          62.0456   87.4182   11.0745 C.ar    1  UNL1        0.2446
      2 N          61.9605   86.5014    9.8903 N.ar    1  UNL1       -0.2078
      3 C          61.0669   86.8478    8.7364 C.ar    1  UNL1        0.1135
      4 C          60.2584   88.1109    8.7666 C.ar    1  UNL1        0.0783
      5 CL         59.3648   88.4572    7.6127 Cl      1  UNL1       -0.0806
      6 C          60.3435   89.0276    9.9507 C.ar    1  UNL1        0.0336
      7 C          61.2371   88.6813   11.1047 C.ar    1  UNL1        0.1190
      8 N          61.3222   89.5981   12.2889 N.pl3   1  UNL1       -0.2104
      9 H          60.5141   89.8011   12.8133 H       1  UNL1        0.1739
     10 S          62.6384   90.2057   12.6740 S.O2    1  UNL1        0.0737
     11 O          62.4243   89.7701   14.0932 O.2     1  UNL1       -0.1499
     12 O          62.8526   90.6413   11.2547 O.2     1  UNL1       -0.1499
     13 C          63.9547   90.8133   13.0590 C.ar    1  UNL1        0.1261
     14 C          64.6539   90.3597   14.3061 C.ar    1  UNL1        0.0211
     15 C          65.9702   90.9673   14.6912 C.ar    1  UNL1        0.0136
     16 C          66.5872   92.0285   13.8292 C.ar    1  UNL1        0.0683
     17 CL         67.9035   92.6361   14.2143 Cl      1  UNL1       -0.0814
     18 C          65.8880   92.4822   12.5820 C.ar    1  UNL1        0.0695
     19 CL         66.5050   93.5434   11.7201 Cl      1  UNL1       -0.0813
     20 C          64.5717   91.8746   12.1970 C.ar    1  UNL1        0.0324
     21 O          62.9392   87.0719   12.2284 O.3     1  UNL1       -0.4338
     22 C          64.4078   86.4025   14.7573 C.3     1  UNL1        0.0554
     23 C          63.8512   85.3046   13.9002 C.ar    1  UNL1        0.0938
     24 N          64.0289   83.8719   14.3074 N.ar    1  UNL1       -0.2451
     25 C          63.4723   82.7740   13.4503 C.ar    1  UNL1        0.0987
     26 C          62.7380   83.1086   12.1859 C.ar    1  UNL1        0.0238
     27 C          62.5603   84.5412   11.7786 C.ar    1  UNL1        0.0404
     28 C          63.1169   85.6392   12.6357 C.ar    1  UNL1        0.1607
@<TRIPOS>BOND
     1    22    23    1
     2    23    24   ar
     3    24    25   ar
     4    25    26   ar
     5    26    27   ar
     6    27    28   ar
     7    28    21    1
     8    21     1    1
     9     1     2   ar
    10     2     3   ar
    11     3     4   ar
    12     4     5    1
    13     4     6   ar
    14     6     7   ar
    15     7     8    1
    16     8    10    1
    17    10    11    2
    18    10    12    2
    19    10    13    1
    20    13    14   ar
    21    14    15   ar
    22    15    16   ar
    23    16    17    1
    24    16    18   ar
    25    18    19    1
    26    18    20   ar
    27    28    23   ar
    28     7     1   ar
    29    20    13   ar
    30     8     9    1
@<TRIPOS>MOLECULE
*****
 28 30 0 0 0
SMALL
GASTEIGER

@<TRIPOS>ATOM
      1 C          64.7541   91.9848   12.6444 C.ar    1  UNL1        0.2446
      2 N          65.7729   91.7232   13.7139 N.ar    1  UNL1       -0.2078
      3 C          65.5859   90.5776   14.6639 C.ar    1  UNL1        0.1135
      4 C          64.3800   89.6934   14.5444 C.ar    1  UNL1        0.0783
      5 CL         64.1930   88.5478   15.4944 Cl      1  UNL1       -0.0806
      6 C          63.3613   89.9549   13.4750 C.ar    1  UNL1        0.0336
      7 C          63.5483   91.1006   12.5250 C.ar    1  UNL1        0.1190
      8 N          62.5295   91.3621   11.4556 N.pl3   1  UNL1       -0.2104
      9 H          62.2110   92.2793   11.2928 H       1  UNL1        0.1739
     10 S          61.9961   90.2261   10.6340 S.O2    1  UNL1        0.0737
     11 O          63.3589   90.0120   10.0451 O.2     1  UNL1       -0.1499
     12 O          60.6332   90.4401   11.2230 O.2     1  UNL1       -0.1499
     13 C          61.4626   89.0901    9.8125 C.ar    1  UNL1        0.1261
     14 C          60.1521   89.2327    9.0968 C.ar    1  UNL1        0.0211
     15 C          59.6187   88.0967    8.2753 C.ar    1  UNL1        0.0136
     16 C          60.3957   86.8180    8.1695 C.ar    1  UNL1        0.0683
     17 CL         59.8622   85.6820    7.3479 Cl      1  UNL1       -0.0814
     18 C          61.7062   86.6753    8.8852 C.ar    1  UNL1        0.0695
     19 CL         62.4832   85.3967    8.7794 Cl      1  UNL1       -0.0813
     20 C          62.2397   87.8113    9.7067 C.ar    1  UNL1        0.0324
     21 O          64.9412   93.1304   11.6945 O.3     1  UNL1       -0.4338
     22 C          65.9709   95.8244   10.8686 C.3     1  UNL1        0.0554
     23 C          66.7151   94.5835   10.4732 C.ar    1  UNL1        0.0938
     24 N          67.9742   94.6896    9.6649 N.ar    1  UNL1       -0.2451
     25 C          68.7184   93.4487    9.2695 C.ar    1  UNL1        0.0987
     26 C          68.2036   92.1017    9.6824 C.ar    1  UNL1        0.0238
     27 C          66.9445   91.9956   10.4907 C.ar    1  UNL1        0.0404
     28 C          66.2003   93.2365   10.8861 C.ar    1  UNL1        0.1607
@<TRIPOS>BOND
     1    22    23    1
     2    23    24   ar
     3    24    25   ar
     4    25    26   ar
     5    26    27   ar
     6    27    28   ar
     7    28    21    1
     8    21     1    1
     9     1     2   ar
    10     2     3   ar
    11     3     4   ar
    12     4     5    1
    13     4     6   ar
    14     6     7   ar
    15     7     8    1
    16     8    10    1
    17    10    11    2
    18    10    12    2
    19    10    13    1
    20    13    14   ar
    21    14    15   ar
    22    15    16   ar
    23    16    17    1
    24    16    18   ar
    25    18    19    1
    26    18    20   ar
    27    28    23   ar
    28     7     1   ar
    29    20    13   ar
    30     8     9    1
@<TRIPOS>MOLECULE
*****
 28 30 0 0 0
SMALL
GASTEIGER

@<TRIPOS>ATOM
      1 C          61.4849   88.6797   11.3269 C.ar    1  UNL1        0.2446
      2 N          60.5250   89.3444   10.3852 N.ar    1  UNL1       -0.2078
      3 C          59.9999   88.5950    9.1967 C.ar    1  UNL1        0.1135
      4 C          60.4348   87.1808    8.9498 C.ar    1  UNL1        0.0783
      5 CL         59.9097   86.4314    7.7613 Cl      1  UNL1       -0.0806
      6 C          61.3947   86.5161    9.8914 C.ar    1  UNL1        0.0336
      7 C          61.9198   87.2655   11.0799 C.ar    1  UNL1        0.1190
      8 N          62.8797   86.6008   12.0215 N.pl3   1  UNL1       -0.2104
      9 H          63.5661   87.1348   12.4829 H       1  UNL1        0.1739
     10 S          62.7939   85.1224   12.2601 S.O2    1  UNL1        0.0737
     11 O          62.3880   85.3754   13.6818 O.2     1  UNL1       -0.1499
     12 O          63.1998   84.8693   10.8384 O.2     1  UNL1       -0.1499
     13 C          62.7080   83.6439   12.4987 C.ar    1  UNL1        0.1261
     14 C          62.4283   83.1216   13.8767 C.ar    1  UNL1        0.0211
     15 C          62.3425   81.6432   14.1153 C.ar    1  UNL1        0.0136
     16 C          62.5363   80.6871   12.9759 C.ar    1  UNL1        0.0683
     17 CL         62.4504   79.2087   13.2145 Cl      1  UNL1       -0.0814
     18 C          62.8160   81.2094   11.5978 C.ar    1  UNL1        0.0695
     19 CL         63.0098   80.2533   10.4584 Cl      1  UNL1       -0.0813
     20 C          62.9019   82.6878   11.3592 C.ar    1  UNL1        0.0324
     21 O          62.0100   89.4291   12.5154 O.3     1  UNL1       -0.4338
     22 C          63.6458   90.2901   14.8782 C.3     1  UNL1        0.0554
     23 C          63.9236   90.8692   13.5227 C.ar    1  UNL1        0.0938
     24 N          65.0192   91.8787   13.3485 N.ar    1  UNL1       -0.2451
     25 C          65.2970   92.4578   11.9930 C.ar    1  UNL1        0.0987
     26 C          64.4791   92.0274   10.8116 C.ar    1  UNL1        0.0238
     27 C          63.3835   91.0179   10.9857 C.ar    1  UNL1        0.0404
     28 C          63.1057   90.4387   12.3413 C.ar    1  UNL1        0.1607
@<TRIPOS>BOND
     1    22    23    1
     2    23    24   ar
     3    24    25   ar
     4    25    26   ar
     5    26    27   ar
     6    27    28   ar
     7    28    21    1
     8    21     1    1
     9     1     2   ar
    10     2     3   ar
    11     3     4   ar
    12     4     5    1
    13     4     6   ar
    14     6     7   ar
    15     7     8    1
    16     8    10    1
    17    10    11    2
    18    10    12    2
    19    10    13    1
    20    13    14   ar
    21    14    15   ar
    22    15    16   ar
    23    16    17    1
    24    16    18   ar
    25    18    19    1
    26    18    20   ar
    27    28    23   ar
    28     7     1   ar
    29    20    13   ar
    30     8     9    1
@<TRIPOS>MOLECULE
*****
 28 30 0 0 0
SMALL
GASTEIGER

@<TRIPOS>ATOM
      1 C          64.0140   90.0982   14.5143 C.ar    1  UNL1        0.2446
      2 N          65.3663   90.7243   14.6857 N.ar    1  UNL1       -0.2078
      3 C          65.9207   91.6167   13.6151 C.ar    1  UNL1        0.1135
      4 C          65.1229   91.8830   12.3731 C.ar    1  UNL1        0.0783
      5 CL         65.6773   92.7754   11.3025 Cl      1  UNL1       -0.0806
      6 C          63.7706   91.2570   12.2017 C.ar    1  UNL1        0.0336
      7 C          63.2161   90.3645   13.2723 C.ar    1  UNL1        0.1190
      8 N          61.8639   89.7385   13.1009 N.pl3   1  UNL1       -0.2104
      9 H          61.1653   89.8823   13.7796 H       1  UNL1        0.1739
     10 S          61.5759   88.8934   11.8956 S.O2    1  UNL1        0.0737
     11 O          62.7922   88.0649   12.1859 O.2     1  UNL1       -0.1499
     12 O          60.3597   89.7218   11.6053 O.2     1  UNL1       -0.1499
     13 C          61.2880   88.0483   10.6902 C.ar    1  UNL1        0.1261
     14 C          59.9433   88.1179   10.0293 C.ar    1  UNL1        0.0211
     15 C          59.6554   87.2727    8.8240 C.ar    1  UNL1        0.0136
     16 C          60.7122   86.3580    8.2795 C.ar    1  UNL1        0.0683
     17 CL         60.4242   85.5129    7.0742 Cl      1  UNL1       -0.0814
     18 C          62.0570   86.2884    8.9405 C.ar    1  UNL1        0.0695
     19 CL         63.1138   85.3737    8.3960 Cl      1  UNL1       -0.0813
     20 C          62.3449   87.1335   10.1458 C.ar    1  UNL1        0.0324
     21 O          63.4596   89.2058   15.5849 O.3     1  UNL1       -0.4338
     22 C          62.5715   87.4567   17.8547 C.3     1  UNL1        0.0554
     23 C          63.2795   86.8553   16.6770 C.ar    1  UNL1        0.0938
     24 N          63.5435   85.3793   16.6342 N.ar    1  UNL1       -0.2451
     25 C          64.2516   84.7779   15.4565 C.ar    1  UNL1        0.0987
     26 C          64.6956   85.6524   14.3216 C.ar    1  UNL1        0.0238
     27 C          64.4316   87.1283   14.3644 C.ar    1  UNL1        0.0404
     28 C          63.7236   87.7298   15.5421 C.ar    1  UNL1        0.1607
@<TRIPOS>BOND
     1    22    23    1
     2    23    24   ar
     3    24    25   ar
     4    25    26   ar
     5    26    27   ar
     6    27    28   ar
     7    28    21    1
     8    21     1    1
     9     1     2   ar
    10     2     3   ar
    11     3     4   ar
    12     4     5    1
    13     4     6   ar
    14     6     7   ar
    15     7     8    1
    16     8    10    1
    17    10    11    2
    18    10    12    2
    19    10    13    1
    20    13    14   ar
    21    14    15   ar
    22    15    16   ar
    23    16    17    1
    24    16    18   ar
    25    18    19    1
    26    18    20   ar
    27    28    23   ar
    28     7     1   ar
    29    20    13   ar
    30     8     9    1
@<TRIPOS>MOLECULE
*****
 28 30 0 0 0
SMALL
GASTEIGER

@<TRIPOS>ATOM
      1 C          63.8156   89.0540   14.7601 C.ar    1  UNL1        0.2446
      2 N          63.4164   89.8733   15.9515 N.ar    1  UNL1       -0.2078
      3 C          63.0257   89.1952   17.2311 C.ar    1  UNL1        0.1135
      4 C          63.0340   87.6978   17.3194 C.ar    1  UNL1        0.0783
      5 CL         62.6433   87.0198   18.5990 Cl      1  UNL1       -0.0806
      6 C          63.4332   86.8785   16.1280 C.ar    1  UNL1        0.0336
      7 C          63.8240   87.5566   14.8483 C.ar    1  UNL1        0.1190
      8 N          64.2231   86.7373   13.6569 N.pl3   1  UNL1       -0.2104
      9 H          64.7813   87.1355   12.9504 H       1  UNL1        0.1739
     10 S          63.7718   85.3115   13.5420 S.O2    1  UNL1        0.0737
     11 O          65.0058   84.8624   14.2669 O.2     1  UNL1       -0.1499
     12 O          62.5377   85.7605   12.8171 O.2     1  UNL1       -0.1499
     13 C          63.3204   83.8856   13.4271 C.ar    1  UNL1        0.1261
     14 C          62.7138   83.1932   14.6113 C.ar    1  UNL1        0.0211
     15 C          62.2625   81.7673   14.4964 C.ar    1  UNL1        0.0136
     16 C          62.4178   81.0339   13.1972 C.ar    1  UNL1        0.0683
     17 CL         61.9665   79.6080   13.0823 Cl      1  UNL1       -0.0814
     18 C          63.0244   81.7263   12.0128 C.ar    1  UNL1        0.0695
     19 CL         63.1797   80.9929   10.7137 Cl      1  UNL1       -0.0813
     20 C          63.4757   83.1522   12.1278 C.ar    1  UNL1        0.0324
     21 O          64.2064   89.7321   13.4805 O.3     1  UNL1       -0.4338
     22 C          64.0523   91.6579   11.1853 C.3     1  UNL1        0.0554
     23 C          64.9167   91.9712   12.3704 C.ar    1  UNL1        0.0938
     24 N          65.7040   93.2473   12.4080 N.ar    1  UNL1       -0.2451
     25 C          66.5685   93.5606   13.5932 C.ar    1  UNL1        0.0987
     26 C          66.6455   92.5978   14.7408 C.ar    1  UNL1        0.0238
     27 C          65.8582   91.3216   14.7032 C.ar    1  UNL1        0.0404
     28 C          64.9938   91.0083   13.5180 C.ar    1  UNL1        0.1607
@<TRIPOS>BOND
     1    22    23    1
     2    23    24   ar
     3    24    25   ar
     4    25    26   ar
     5    26    27   ar
     6    27    28   ar
     7    28    21    1
     8    21     1    1
     9     1     2   ar
    10     2     3   ar
    11     3     4   ar
    12     4     5    1
    13     4     6   ar
    14     6     7   ar
    15     7     8    1
    16     8    10    1
    17    10    11    2
    18    10    12    2
    19    10    13    1
    20    13    14   ar
    21    14    15   ar
    22    15    16   ar
    23    16    17    1
    24    16    18   ar
    25    18    19    1
    26    18    20   ar
    27    28    23   ar
    28     7     1   ar
    29    20    13   ar
    30     8     9    1
@<TRIPOS>MOLECULE
*****
 28 30 0 0 0
SMALL
GASTEIGER

@<TRIPOS>ATOM
      1 C          63.2060   90.3148   13.1933 C.ar    1  UNL1        0.2446
      2 N          63.6925   91.3813   12.2573 N.ar    1  UNL1       -0.2078
      3 C          65.0382   92.0089   12.4697 C.ar    1  UNL1        0.1135
      4 C          65.8975   91.5701   13.6182 C.ar    1  UNL1        0.0783
      5 CL         67.2432   92.1977   13.8306 Cl      1  UNL1       -0.0806
      6 C          65.4111   90.5037   14.5542 C.ar    1  UNL1        0.0336
      7 C          64.0654   89.8760   14.3418 C.ar    1  UNL1        0.1190
      8 N          63.5790   88.8096   15.2778 N.pl3   1  UNL1       -0.2104
      9 H          63.1972   89.0576   16.1507 H       1  UNL1        0.1739
     10 S          63.6745   87.3654   14.8839 S.O2    1  UNL1        0.0737
     11 O          64.1549   87.7688   13.5214 O.2     1  UNL1       -0.1499
     12 O          63.1942   86.9621   16.2465 O.2     1  UNL1       -0.1499
     13 C          63.7700   85.9212   14.4901 C.ar    1  UNL1        0.1261
     14 C          64.1617   84.8907   15.5072 C.ar    1  UNL1        0.0211
     15 C          64.2571   83.4465   15.1133 C.ar    1  UNL1        0.0136
     16 C          63.9609   83.0328   13.7023 C.ar    1  UNL1        0.0683
     17 CL         64.0564   81.5886   13.3084 Cl      1  UNL1       -0.0814
     18 C          63.5692   84.0633   12.6851 C.ar    1  UNL1        0.0695
     19 CL         63.2730   83.6496   11.2740 Cl      1  UNL1       -0.0813
     20 C          63.4737   85.5075   13.0789 C.ar    1  UNL1        0.0324
     21 O          61.8603   89.6872   12.9809 O.3     1  UNL1       -0.4338
     22 C          59.3664   90.6640   11.6295 C.3     1  UNL1        0.0554
     23 C          60.2372   89.6475   10.9526 C.ar    1  UNL1        0.0938
     24 N          59.8611   89.1193    9.6000 N.ar    1  UNL1       -0.2451
     25 C          60.7320   88.1028    8.9230 C.ar    1  UNL1        0.0987
     26 C          61.9789   87.6144    9.5986 C.ar    1  UNL1        0.0238
     27 C          62.3550   88.1426   10.9512 C.ar    1  UNL1        0.0404
     28 C          61.4842   89.1591   11.6282 C.ar    1  UNL1        0.1607
@<TRIPOS>BOND
     1    22    23    1
     2    23    24   ar
     3    24    25   ar
     4    25    26   ar
     5    26    27   ar
     6    27    28   ar
     7    28    21    1
     8    21     1    1
     9     1     2   ar
    10     2     3   ar
    11     3     4   ar
    12     4     5    1
    13     4     6   ar
    14     6     7   ar
    15     7     8    1
    16     8    10    1
    17    10    11    2
    18    10    12    2
    19    10    13    1
    20    13    14   ar
    21    14    15   ar
    22    15    16   ar
    23    16    17    1
    24    16    18   ar
    25    18    19    1
    26    18    20   ar
    27    28    23   ar
    28     7     1   ar
    29    20    13   ar
    30     8     9    1
@<TRIPOS>MOLECULE
*****
 28 30 0 0 0
SMALL
GASTEIGER

@<TRIPOS>ATOM
      1 C          63.3421   90.8884   12.2509 C.ar    1  UNL1        0.2446
      2 N          63.5662   91.3299   10.8349 N.ar    1  UNL1       -0.2078
      3 C          64.6647   92.3005   10.5168 C.ar    1  UNL1        0.1135
      4 C          65.5392   92.8296   11.6147 C.ar    1  UNL1        0.0783
      5 CL         66.6377   93.8002   11.2966 Cl      1  UNL1       -0.0806
      6 C          65.3152   92.3882   13.0306 C.ar    1  UNL1        0.0336
      7 C          64.2166   91.4176   13.3487 C.ar    1  UNL1        0.1190
      8 N          63.9926   90.9761   14.7647 N.pl3   1  UNL1       -0.2104
      9 H          63.9344   91.6444   15.4853 H       1  UNL1        0.1739
     10 S          63.8573   89.5165   15.0827 S.O2    1  UNL1        0.0737
     11 O          62.4934   89.7675   15.6543 O.2     1  UNL1       -0.1499
     12 O          65.2212   89.2655   14.5112 O.2     1  UNL1       -0.1499
     13 C          63.7219   88.0569   15.4008 C.ar    1  UNL1        0.1261
     14 C          63.1166   87.6262   16.7039 C.ar    1  UNL1        0.0211
     15 C          62.9812   86.1666   17.0219 C.ar    1  UNL1        0.0136
     16 C          63.4512   85.1376   16.0369 C.ar    1  UNL1        0.0683
     17 CL         63.3158   83.6780   16.3550 Cl      1  UNL1       -0.0814
     18 C          64.0566   85.5682   14.7337 C.ar    1  UNL1        0.0695
     19 CL         64.5265   84.5393   13.7487 Cl      1  UNL1       -0.0813
     20 C          64.1919   87.0279   14.4157 C.ar    1  UNL1        0.0324
     21 O          62.2436   89.9179   12.5690 O.3     1  UNL1       -0.4338
     22 C          59.7100   90.5542   11.0938 C.3     1  UNL1        0.0554
     23 C          60.4710   89.3023   10.7721 C.ar    1  UNL1        0.0938
     24 N          59.9652   88.3685    9.7128 N.ar    1  UNL1       -0.2451
     25 C          60.7262   87.1165    9.3910 C.ar    1  UNL1        0.0987
     26 C          61.9929   86.7983   10.1285 C.ar    1  UNL1        0.0238
     27 C          62.4987   87.7321   11.1879 C.ar    1  UNL1        0.0404
     28 C          61.7377   88.9841   11.5096 C.ar    1  UNL1        0.1607
@<TRIPOS>BOND
     1    22    23    1
     2    23    24   ar
     3    24    25   ar
     4    25    26   ar
     5    26    27   ar
     6    27    28   ar
     7    28    21    1
     8    21     1    1
     9     1     2   ar
    10     2     3   ar
    11     3     4   ar
    12     4     5    1
    13     4     6   ar
    14     6     7   ar
    15     7     8    1
    16     8    10    1
    17    10    11    2
    18    10    12    2
    19    10    13    1
    20    13    14   ar
    21    14    15   ar
    22    15    16   ar
    23    16    17    1
    24    16    18   ar
    25    18    19    1
    26    18    20   ar
    27    28    23   ar
    28     7     1   ar
    29    20    13   ar
    30     8     9    1
@<TRIPOS>MOLECULE
*****
 28 30 0 0 0
SMALL
GASTEIGER

@<TRIPOS>ATOM
      1 C          62.4079   86.3726   11.1930 C.ar    1  UNL1        0.2446
      2 N          62.7733   84.9186   11.2441 N.ar    1  UNL1       -0.2078
      3 C          63.5061   84.3708   12.4327 C.ar    1  UNL1        0.1135
      4 C          63.8735   85.2768   13.5702 C.ar    1  UNL1        0.0783
      5 CL         64.6063   84.7290   14.7588 Cl      1  UNL1       -0.0806
      6 C          63.5081   86.7307   13.5192 C.ar    1  UNL1        0.0336
      7 C          62.7753   87.2786   12.3305 C.ar    1  UNL1        0.1190
      8 N          62.4100   88.7325   12.2795 N.pl3   1  UNL1       -0.2104
      9 H          61.5309   89.0072   11.9317 H       1  UNL1        0.1739
     10 S          63.3839   89.7679   12.7585 S.O2    1  UNL1        0.0737
     11 O          63.6678   90.1578   11.3381 O.2     1  UNL1       -0.1499
     12 O          63.1000   89.3779   14.1788 O.2     1  UNL1       -0.1499
     13 C          64.3579   90.8032   13.2374 C.ar    1  UNL1        0.1261
     14 C          64.9150   90.7226   14.6277 C.ar    1  UNL1        0.0211
     15 C          65.8890   91.7579   15.1067 C.ar    1  UNL1        0.0136
     16 C          66.3059   92.8739   14.1953 C.ar    1  UNL1        0.0683
     17 CL         67.2799   93.9093   14.6743 Cl      1  UNL1       -0.0814
     18 C          65.7488   92.9546   12.8049 C.ar    1  UNL1        0.0695
     19 CL         66.1657   94.0707   11.8935 Cl      1  UNL1       -0.0813
     20 C          64.7748   91.9193   12.3259 C.ar    1  UNL1        0.0324
     21 O          61.6751   86.9204   10.0044 O.3     1  UNL1       -0.4338
     22 C          59.1486   86.8329    8.3891 C.3     1  UNL1        0.0554
     23 C          60.3660   86.0941    7.9178 C.ar    1  UNL1        0.0938
     24 N          60.3202   85.3116    6.6390 N.ar    1  UNL1       -0.2451
     25 C          61.5377   84.5728    6.1677 C.ar    1  UNL1        0.0987
     26 C          62.8009   84.6166    6.9753 C.ar    1  UNL1        0.0238
     27 C          62.8467   85.3991    8.2542 C.ar    1  UNL1        0.0404
     28 C          61.6293   86.1379    8.7254 C.ar    1  UNL1        0.1607
@<TRIPOS>BOND
     1    22    23    1
     2    23    24   ar
     3    24    25   ar
     4    25    26   ar
     5    26    27   ar
     6    27    28   ar
     7    28    21    1
     8    21     1    1
     9     1     2   ar
    10     2     3   ar
    11     3     4   ar
    12     4     5    1
    13     4     6   ar
    14     6     7   ar
    15     7     8    1
    16     8    10    1
    17    10    11    2
    18    10    12    2
    19    10    13    1
    20    13    14   ar
    21    14    15   ar
    22    15    16   ar
    23    16    17    1
    24    16    18   ar
    25    18    19    1
    26    18    20   ar
    27    28    23   ar
    28     7     1   ar
    29    20    13   ar
    30     8     9    1
