@<TRIPOS>MOLECULE
*****
 41 43 0 0 0
SMALL
GASTEIGER

@<TRIPOS>ATOM
      1 C          63.5665   89.6666   12.7391 C.3     1  UNL1        0.1085
      2 O          63.4450   89.1229   11.3465 O.3     1  UNL1       -0.3826
      3 H          63.2824   89.8520   10.7277 H       1  UNL1        0.2107
      4 C          63.7901   88.2785   13.2616 C.3     1  UNL1        0.0484
      5 C          64.5980   88.0672   14.5077 C.3     1  UNL1        0.0061
      6 C          64.8216   86.6790   15.0302 C.3     1  UNL1        0.0217
      7 C          64.2373   85.5021   14.3065 C.3     1  UNL1        0.0934
      8 N          63.4295   85.7134   13.0605 N.am    1  UNL1       -0.2794
      9 C          62.8452   84.5365   12.3368 C.2     1  UNL1        0.2257
     10 O          62.0374   84.7478   11.0907 O.2     1  UNL1       -0.2749
     11 C          63.2059   87.1016   12.5380 C.3     1  UNL1        0.0960
     12 C          63.0688   83.1484   12.8593 C.3     1  UNL1        0.0867
     13 C          62.8735   81.9667   11.9564 C.3     1  UNL1        0.0266
     14 C          62.7768   80.5869   12.5370 C.3     1  UNL1        0.0691
     15 N          62.1576   80.3834   13.8879 N.3     1  UNL1       -0.2963
     16 C          60.7215   80.7507   14.1176 C.3     1  UNL1        0.0859
     17 H          62.7103   80.9277   14.5502 H       1  UNL1        0.1233
     18 C          64.7729   91.1925   14.4615 C.ar    1  UNL1        0.0088
     19 C          64.8945   91.7363   15.8541 C.ar    1  UNL1        0.0574
     20 CL         65.9793   92.7184   16.1838 Cl      1  UNL1       -0.0823
     21 C          63.9313   91.2979   16.9172 C.ar    1  UNL1        0.0114
     22 C          62.8465   90.3157   16.5876 C.ar    1  UNL1        0.0006
     23 C          62.7249   89.7720   15.1949 C.ar    1  UNL1       -0.0020
     24 C          63.6881   90.2104   14.1319 C.ar    1  UNL1        0.0026
     25 C          66.2499   93.0126   11.2590 C.ar    1  UNL1       -0.0222
     26 C          67.6623   92.5077   11.2722 C.ar    1  UNL1       -0.0043
     27 C          68.1116   91.5645   12.3485 C.ar    1  UNL1       -0.0003
     28 C          67.1485   91.1261   13.4116 C.ar    1  UNL1       -0.0000
     29 C          65.7361   91.6309   13.3984 C.ar    1  UNL1        0.0003
     30 C          65.2868   92.5742   12.3221 C.ar    1  UNL1       -0.0042
     31 C          66.8043   94.8114    9.4682 C.3     1  UNL1        0.0050
     32 C          65.8006   93.9558   10.1827 C.3     1  UNL1        0.0264
     33 C          63.3429   91.0548   12.2166 C.3     1  UNL1        0.0329
     34 C          62.5835   91.2623   10.9399 C.3     1  UNL1        0.0241
     35 C          61.1553   90.8159   10.8357 C.3     1  UNL1        0.0928
     36 N          60.7641   89.7846    9.8190 N.am    1  UNL1       -0.2707
     37 C          60.1941   88.4707   10.2646 C.2     1  UNL1        0.4017
     38 O          60.0153   88.1878   11.7268 O.2     1  UNL1       -0.2264
     39 H          60.8814   89.9703    8.8593 H       1  UNL1        0.1527
     40 O          59.8029   87.4395    9.2479 O.3     1  UNL1       -0.4306
     41 C          59.3819   87.8644    7.8723 C.3     1  UNL1        0.2573
@<TRIPOS>BOND
     1    31    32    1
     2    32    25    1
     3    25    26   ar
     4    26    27   ar
     5    27    28   ar
     6    28    29   ar
     7    29    18    1
     8    18    19   ar
     9    19    20    1
    10    19    21   ar
    11    21    22   ar
    12    22    23   ar
    13    23    24   ar
    14    24     1    1
    15     1     2    1
    16     1    33    1
    17    33    34    1
    18    34    35    1
    19    35    36    1
    20    36    37   am
    21    37    38    2
    22    37    40    1
    23    40    41    1
    24     4     1    1
    25     4     5    1
    26     5     6    1
    27     6     7    1
    28     7     8    1
    29     8     9   am
    30     9    10    2
    31     9    12    1
    32    12    13    1
    33    13    14    1
    34    14    15    1
    35    15    16    1
    36     8    11    1
    37    29    30   ar
    38    30    25   ar
    39    24    18   ar
    40    11     4    1
    41     2     3    1
    42    36    39    1
    43    15    17    1
@<TRIPOS>MOLECULE
*****
 41 43 0 0 0
SMALL
GASTEIGER

@<TRIPOS>ATOM
      1 C          63.0434   88.3817   12.4451 C.3     1  UNL1        0.1085
      2 O          64.4285   88.1591   12.9761 O.3     1  UNL1       -0.3826
      3 H          64.4661   87.3043   13.4331 H       1  UNL1        0.2107
      4 C          63.4715   89.7050   11.8833 C.3     1  UNL1        0.0484
      5 C          62.9723   90.1460   10.5393 C.3     1  UNL1        0.0061
      6 C          63.4004   91.4694    9.9775 C.3     1  UNL1        0.0217
      7 C          64.3276   92.3516   10.7598 C.3     1  UNL1        0.0934
      8 N          64.8268   91.9106   12.1037 N.am    1  UNL1       -0.2794
      9 C          65.7541   92.7929   12.8859 C.2     1  UNL1        0.2257
     10 O          66.2532   92.3518   14.2299 O.2     1  UNL1       -0.2749
     11 C          64.3987   90.5873   12.6655 C.3     1  UNL1        0.0960
     12 C          66.1821   94.1162   12.3242 C.3     1  UNL1        0.0867
     13 C          66.9193   94.1738   11.0192 C.3     1  UNL1        0.0266
     14 C          66.6959   95.3232   10.0816 C.3     1  UNL1        0.0691
     15 N          67.6904   95.6096    8.9958 N.3     1  UNL1       -0.2963
     16 C          67.5257   96.8226    8.1290 C.3     1  UNL1        0.0859
     17 H          67.6887   94.8010    8.3741 H       1  UNL1        0.1233
     18 C          61.1169   87.7145   10.8346 C.ar    1  UNL1        0.0088
     19 C          59.7319   87.9371   10.3036 C.ar    1  UNL1        0.0574
     20 CL         59.1905   87.0472    9.2242 Cl      1  UNL1       -0.0823
     21 C          58.8882   89.0496   10.8519 C.ar    1  UNL1        0.0114
     22 C          59.4296   89.9394   11.9312 C.ar    1  UNL1        0.0006
     23 C          60.8147   89.7168   12.4623 C.ar    1  UNL1       -0.0020
     24 C          61.6583   88.6043   11.9140 C.ar    1  UNL1        0.0026
     25 C          62.9703   84.2194   10.5187 C.ar    1  UNL1       -0.0222
     26 C          63.6480   84.3770    9.1899 C.ar    1  UNL1       -0.0043
     27 C          63.4820   85.6471    8.4093 C.ar    1  UNL1       -0.0003
     28 C          62.6383   86.7596    8.9575 C.ar    1  UNL1       -0.0000
     29 C          61.9606   86.6020   10.2863 C.ar    1  UNL1        0.0003
     30 C          62.1266   85.3319   11.0669 C.ar    1  UNL1       -0.0042
     31 C          64.5065   82.4880   11.6985 C.3     1  UNL1        0.0050
     32 C          63.1362   82.9493   11.2993 C.3     1  UNL1        0.0264
     33 C          62.6154   87.0584   13.0068 C.3     1  UNL1        0.0329
     34 C          63.6048   86.1970   13.7343 C.3     1  UNL1        0.0241
     35 C          63.1500   85.3251   14.8669 C.3     1  UNL1        0.0928
     36 N          62.1257   84.2561   14.6259 N.am    1  UNL1       -0.2707
     37 C          62.5028   82.8110   14.7651 C.2     1  UNL1        0.4017
     38 O          63.9043   82.4348   15.1454 O.2     1  UNL1       -0.2264
     39 H          61.2059   84.5029   14.3763 H       1  UNL1        0.1527
     40 O          61.4786   81.7419   14.5241 O.3     1  UNL1       -0.4306
     41 C          61.8285   80.5409   13.6964 C.3     1  UNL1        0.2573
@<TRIPOS>BOND
     1    31    32    1
     2    32    25    1
     3    25    26   ar
     4    26    27   ar
     5    27    28   ar
     6    28    29   ar
     7    29    18    1
     8    18    19   ar
     9    19    20    1
    10    19    21   ar
    11    21    22   ar
    12    22    23   ar
    13    23    24   ar
    14    24     1    1
    15     1     2    1
    16     1    33    1
    17    33    34    1
    18    34    35    1
    19    35    36    1
    20    36    37   am
    21    37    38    2
    22    37    40    1
    23    40    41    1
    24     4     1    1
    25     4     5    1
    26     5     6    1
    27     6     7    1
    28     7     8    1
    29     8     9   am
    30     9    10    2
    31     9    12    1
    32    12    13    1
    33    13    14    1
    34    14    15    1
    35    15    16    1
    36     8    11    1
    37    29    30   ar
    38    30    25   ar
    39    24    18   ar
    40    11     4    1
    41     2     3    1
    42    36    39    1
    43    15    17    1
@<TRIPOS>MOLECULE
*****
 41 43 0 0 0
SMALL
GASTEIGER

@<TRIPOS>ATOM
      1 C          62.3183   87.8717   11.8673 C.3     1  UNL1        0.1085
      2 O          63.3585   87.0695   12.5914 O.3     1  UNL1       -0.3826
      3 H          63.1426   86.1261   12.5262 H       1  UNL1        0.2107
      4 C          63.0401   89.1354   12.2302 C.3     1  UNL1        0.0484
      5 C          63.5142   90.0645   11.1522 C.3     1  UNL1        0.0061
      6 C          64.2361   91.3283   11.5152 C.3     1  UNL1        0.0217
      7 C          64.4839   91.6630   12.9562 C.3     1  UNL1        0.0934
      8 N          64.0099   90.7339   14.0343 N.am    1  UNL1       -0.2794
      9 C          64.2578   91.0686   15.4753 C.2     1  UNL1        0.2257
     10 O          63.7837   90.1396   16.5534 O.2     1  UNL1       -0.2749
     11 C          63.2880   89.4702   13.6713 C.3     1  UNL1        0.0960
     12 C          64.9796   92.3324   15.8383 C.3     1  UNL1        0.0867
     13 C          66.4676   92.3184   16.0269 C.3     1  UNL1        0.0266
     14 C          67.3340   93.2445   15.2257 C.3     1  UNL1        0.0691
     15 N          68.4333   92.6899   14.3691 N.3     1  UNL1       -0.2963
     16 C          68.1005   91.8354   13.1820 C.3     1  UNL1        0.0859
     17 H          69.0270   92.1281   14.9792 H       1  UNL1        0.1233
     18 C          60.9521   88.3624    9.7125 C.ar    1  UNL1        0.0088
     19 C          59.9119   89.1645    8.9883 C.ar    1  UNL1        0.0574
     20 CL         59.5861   88.8530    7.5577 Cl      1  UNL1       -0.0823
     21 C          59.1976   90.2784    9.6948 C.ar    1  UNL1        0.0114
     22 C          59.5234   90.5900   11.1255 C.ar    1  UNL1        0.0006
     23 C          60.5637   89.7877   11.8496 C.ar    1  UNL1       -0.0020
     24 C          61.2780   88.6739   11.1431 C.ar    1  UNL1        0.0026
     25 C          61.6258   85.2278    7.3735 C.ar    1  UNL1       -0.0222
     26 C          63.0951   85.0209    7.5930 C.ar    1  UNL1       -0.0043
     27 C          63.8501   85.9277    8.5191 C.ar    1  UNL1       -0.0003
     28 C          63.1358   87.0415    9.2256 C.ar    1  UNL1       -0.0000
     29 C          61.6665   87.2485    9.0060 C.ar    1  UNL1        0.0003
     30 C          60.9115   86.3416    8.0799 C.ar    1  UNL1       -0.0042
     31 C          61.4859   83.8963    5.1470 C.3     1  UNL1        0.0050
     32 C          60.8708   84.3210    6.4474 C.3     1  UNL1        0.0264
     33 C          61.5964   86.6079   11.5043 C.3     1  UNL1        0.0329
     34 C          62.0055   85.3055   12.1258 C.3     1  UNL1        0.0241
     35 C          62.6270   84.2335   11.2806 C.3     1  UNL1        0.0928
     36 N          62.6862   82.8217   11.7837 N.am    1  UNL1       -0.2707
     37 C          63.6775   82.4444   12.8442 C.2     1  UNL1        0.4017
     38 O          64.6097   83.4790   13.4018 O.2     1  UNL1       -0.2264
     39 H          62.0744   82.1427   11.4178 H       1  UNL1        0.1527
     40 O          63.7368   81.0325   13.3474 O.3     1  UNL1       -0.4306
     41 C          62.4701   80.3017   13.6818 C.3     1  UNL1        0.2573
@<TRIPOS>BOND
     1    31    32    1
     2    32    25    1
     3    25    26   ar
     4    26    27   ar
     5    27    28   ar
     6    28    29   ar
     7    29    18    1
     8    18    19   ar
     9    19    20    1
    10    19    21   ar
    11    21    22   ar
    12    22    23   ar
    13    23    24   ar
    14    24     1    1
    15     1     2    1
    16     1    33    1
    17    33    34    1
    18    34    35    1
    19    35    36    1
    20    36    37   am
    21    37    38    2
    22    37    40    1
    23    40    41    1
    24     4     1    1
    25     4     5    1
    26     5     6    1
    27     6     7    1
    28     7     8    1
    29     8     9   am
    30     9    10    2
    31     9    12    1
    32    12    13    1
    33    13    14    1
    34    14    15    1
    35    15    16    1
    36     8    11    1
    37    29    30   ar
    38    30    25   ar
    39    24    18   ar
    40    11     4    1
    41     2     3    1
    42    36    39    1
    43    15    17    1
@<TRIPOS>MOLECULE
*****
 41 43 0 0 0
SMALL
GASTEIGER

@<TRIPOS>ATOM
      1 C          62.9238   87.8081   12.4935 C.3     1  UNL1        0.1085
      2 O          64.2580   87.5265   13.1185 O.3     1  UNL1       -0.3826
      3 H          64.2628   86.6258   13.4783 H       1  UNL1        0.2107
      4 C          63.3875   89.1859   12.1243 C.3     1  UNL1        0.0484
      5 C          62.9913   89.7825   10.8062 C.3     1  UNL1        0.0061
      6 C          63.4551   91.1605   10.4370 C.3     1  UNL1        0.0217
      7 C          64.3150   91.9417   11.3857 C.3     1  UNL1        0.0934
      8 N          64.7111   91.3452   12.7037 N.am    1  UNL1       -0.2794
      9 C          65.5711   92.1265   13.6525 C.2     1  UNL1        0.2257
     10 O          65.9672   91.5300   14.9705 O.2     1  UNL1       -0.2749
     11 C          64.2474   89.9673   13.0730 C.3     1  UNL1        0.0960
     12 C          66.0348   93.5044   13.2832 C.3     1  UNL1        0.0867
     13 C          66.7692   93.7283   11.9947 C.3     1  UNL1        0.0266
     14 C          66.4756   94.9433   11.1654 C.3     1  UNL1        0.0691
     15 N          67.3802   95.3106   10.0267 N.3     1  UNL1       -0.2963
     16 C          67.8688   94.2503    9.0849 C.3     1  UNL1        0.0859
     17 H          68.2074   95.7448   10.4360 H       1  UNL1        0.1233
     18 C          61.1379   87.2992   10.6764 C.ar    1  UNL1        0.0088
     19 C          59.8038   87.5807   10.0514 C.ar    1  UNL1        0.0574
     20 CL         59.3522   86.7903    8.8592 Cl      1  UNL1       -0.0823
     21 C          58.9211   88.6528   10.6186 C.ar    1  UNL1        0.0114
     22 C          59.3726   89.4433   11.8107 C.ar    1  UNL1        0.0006
     23 C          60.7069   89.1617   12.4357 C.ar    1  UNL1       -0.0020
     24 C          61.5895   88.0897   11.8685 C.ar    1  UNL1        0.0026
     25 C          63.1492   83.8966   10.3203 C.ar    1  UNL1       -0.0222
     26 C          63.7859   84.0831    8.9750 C.ar    1  UNL1       -0.0043
     27 C          63.5400   85.3416    8.1968 C.ar    1  UNL1       -0.0003
     28 C          62.6573   86.4137    8.7639 C.ar    1  UNL1       -0.0000
     29 C          62.0206   86.2271   10.1092 C.ar    1  UNL1        0.0003
     30 C          62.2666   84.9686   10.8874 C.ar    1  UNL1       -0.0042
     31 C          62.4178   82.2032   12.1499 C.3     1  UNL1        0.0050
     32 C          63.3952   82.6380   11.0984 C.3     1  UNL1        0.0264
     33 C          62.4601   86.4302   12.8628 C.3     1  UNL1        0.0329
     34 C          63.4043   85.4748   13.5304 C.3     1  UNL1        0.0241
     35 C          63.5197   85.4563   15.0258 C.3     1  UNL1        0.0928
     36 N          63.7846   86.7294   15.7734 N.am    1  UNL1       -0.2707
     37 C          62.8616   87.1579   16.8755 C.2     1  UNL1        0.4017
     38 O          61.6737   86.3132   17.2298 O.2     1  UNL1       -0.2264
     39 H          64.5642   87.2837   15.5409 H       1  UNL1        0.1527
     40 O          63.1265   88.4310   17.6231 O.3     1  UNL1       -0.4306
     41 C          63.2489   89.7270   16.8777 C.3     1  UNL1        0.2573
@<TRIPOS>BOND
     1    31    32    1
     2    32    25    1
     3    25    26   ar
     4    26    27   ar
     5    27    28   ar
     6    28    29   ar
     7    29    18    1
     8    18    19   ar
     9    19    20    1
    10    19    21   ar
    11    21    22   ar
    12    22    23   ar
    13    23    24   ar
    14    24     1    1
    15     1     2    1
    16     1    33    1
    17    33    34    1
    18    34    35    1
    19    35    36    1
    20    36    37   am
    21    37    38    2
    22    37    40    1
    23    40    41    1
    24     4     1    1
    25     4     5    1
    26     5     6    1
    27     6     7    1
    28     7     8    1
    29     8     9   am
    30     9    10    2
    31     9    12    1
    32    12    13    1
    33    13    14    1
    34    14    15    1
    35    15    16    1
    36     8    11    1
    37    29    30   ar
    38    30    25   ar
    39    24    18   ar
    40    11     4    1
    41     2     3    1
    42    36    39    1
    43    15    17    1
@<TRIPOS>MOLECULE
*****
 41 43 0 0 0
SMALL
GASTEIGER

@<TRIPOS>ATOM
      1 C          62.4927   87.2045   12.1812 C.3     1  UNL1        0.1085
      2 O          63.5504   87.0380   13.2316 O.3     1  UNL1       -0.3826
      3 H          63.4685   86.1606   13.6368 H       1  UNL1        0.2107
      4 C          63.0011   88.5849   11.8880 C.3     1  UNL1        0.0484
      5 C          62.7588   89.2034   10.5431 C.3     1  UNL1        0.0061
      6 C          63.2672   90.5839   10.2499 C.3     1  UNL1        0.0217
      7 C          64.0180   91.3457   11.3015 C.3     1  UNL1        0.0934
      8 N          64.2603   90.7271   12.6464 N.am    1  UNL1       -0.2794
      9 C          65.0111   91.4890   13.6981 C.2     1  UNL1        0.2257
     10 O          65.2534   90.8705   15.0429 O.2     1  UNL1       -0.2749
     11 C          63.7519   89.3468   12.9396 C.3     1  UNL1        0.0960
     12 C          65.5195   92.8694   13.4048 C.3     1  UNL1        0.0867
     13 C          66.9807   93.0918   13.1489 C.3     1  UNL1        0.0266
     14 C          67.9652   91.9927   13.4189 C.3     1  UNL1        0.0691
     15 N          68.2737   91.5924   14.8312 N.3     1  UNL1       -0.2963
     16 C          68.4068   92.6407   15.8958 C.3     1  UNL1        0.0859
     17 H          69.1574   91.0838   14.8068 H       1  UNL1        0.1233
     18 C          61.3322   86.3831   10.0067 C.ar    1  UNL1        0.0088
     19 C          60.2744   86.5496    8.9562 C.ar    1  UNL1        0.0574
     20 CL         60.1717   85.5617    7.8321 Cl      1  UNL1       -0.0823
     21 C          59.3194   87.7039    9.0298 C.ar    1  UNL1        0.0114
     22 C          59.4221   88.6918   10.1539 C.ar    1  UNL1        0.0006
     23 C          60.4799   88.5253   11.2044 C.ar    1  UNL1       -0.0020
     24 C          61.4349   87.3710   11.1307 C.ar    1  UNL1        0.0026
     25 C          63.0307   82.8695   10.7276 C.ar    1  UNL1       -0.0222
     26 C          64.1972   82.9201    9.7860 C.ar    1  UNL1       -0.0043
     27 C          64.4087   84.1249    8.9179 C.ar    1  UNL1       -0.0003
     28 C          63.4537   85.2792    8.9914 C.ar    1  UNL1       -0.0000
     29 C          62.2872   85.2287    9.9331 C.ar    1  UNL1        0.0003
     30 C          62.0758   84.0239   10.8012 C.ar    1  UNL1       -0.0042
     31 C          63.7536   81.3887   12.7363 C.3     1  UNL1        0.0050
     32 C          62.8193   81.6647   11.5958 C.3     1  UNL1        0.0264
     33 C          61.9843   85.8241   12.4745 C.3     1  UNL1        0.0329
     34 C          62.7648   84.9129   13.3747 C.3     1  UNL1        0.0241
     35 C          62.0523   84.0781   14.3971 C.3     1  UNL1        0.0928
     36 N          61.5952   84.6974   15.6846 N.am    1  UNL1       -0.2707
     37 C          62.5769   85.4180   16.5603 C.2     1  UNL1        0.4017
     38 O          64.0158   85.5193   16.1486 O.2     1  UNL1       -0.2264
     39 H          60.6508   84.6309   15.9548 H       1  UNL1        0.1527
     40 O          62.1198   86.0373   17.8477 O.3     1  UNL1       -0.4306
     41 C          62.7758   87.2882   18.3528 C.3     1  UNL1        0.2573
@<TRIPOS>BOND
     1    31    32    1
     2    32    25    1
     3    25    26   ar
     4    26    27   ar
     5    27    28   ar
     6    28    29   ar
     7    29    18    1
     8    18    19   ar
     9    19    20    1
    10    19    21   ar
    11    21    22   ar
    12    22    23   ar
    13    23    24   ar
    14    24     1    1
    15     1     2    1
    16     1    33    1
    17    33    34    1
    18    34    35    1
    19    35    36    1
    20    36    37   am
    21    37    38    2
    22    37    40    1
    23    40    41    1
    24     4     1    1
    25     4     5    1
    26     5     6    1
    27     6     7    1
    28     7     8    1
    29     8     9   am
    30     9    10    2
    31     9    12    1
    32    12    13    1
    33    13    14    1
    34    14    15    1
    35    15    16    1
    36     8    11    1
    37    29    30   ar
    38    30    25   ar
    39    24    18   ar
    40    11     4    1
    41     2     3    1
    42    36    39    1
    43    15    17    1
@<TRIPOS>MOLECULE
*****
 41 43 0 0 0
SMALL
GASTEIGER

@<TRIPOS>ATOM
      1 C          62.6305   86.9319   11.0460 C.3     1  UNL1        0.1085
      2 O          63.2714   87.2740   12.3583 O.3     1  UNL1       -0.3826
      3 H          63.2467   88.2347   12.4895 H       1  UNL1        0.2107
      4 C          62.8976   85.4771   11.2947 C.3     1  UNL1        0.0484
      5 C          63.5261   84.6360   10.2234 C.3     1  UNL1        0.0061
      6 C          63.7932   83.1811   10.4722 C.3     1  UNL1        0.0217
      7 C          63.4318   82.5672   11.7922 C.3     1  UNL1        0.0934
      8 N          62.8034   83.4082   12.8636 N.am    1  UNL1       -0.2794
      9 C          62.4421   82.7943   14.1837 C.2     1  UNL1        0.2257
     10 O          61.8136   83.6353   15.2550 O.2     1  UNL1       -0.2749
     11 C          62.5363   84.8631   12.6148 C.3     1  UNL1        0.0960
     12 C          62.7092   81.3394   14.4324 C.3     1  UNL1        0.0867
     13 C          61.6191   80.3304   14.2238 C.3     1  UNL1        0.0266
     14 C          60.2156   80.7871   13.9559 C.3     1  UNL1        0.0691
     15 N          59.0676   80.1457   14.6775 N.3     1  UNL1       -0.2963
     16 C          58.7759   78.6882   14.4767 C.3     1  UNL1        0.0859
     17 H          58.2268   80.6546   14.4043 H       1  UNL1        0.1233
     18 C          60.7402   87.2988    9.3017 C.ar    1  UNL1        0.0088
     19 C          60.0993   86.9568    7.9894 C.ar    1  UNL1        0.0574
     20 CL         58.8500   87.6658    7.5576 Cl      1  UNL1       -0.0823
     21 C          60.7077   85.9057    7.1090 C.ar    1  UNL1        0.0114
     22 C          61.9570   85.1967    7.5409 C.ar    1  UNL1        0.0006
     23 C          62.5979   85.5388    8.8532 C.ar    1  UNL1       -0.0020
     24 C          61.9896   86.5898    9.7336 C.ar    1  UNL1        0.0026
     25 C          58.7883   89.0025   12.3079 C.ar    1  UNL1       -0.0222
     26 C          58.9152   90.4519   11.9431 C.ar    1  UNL1       -0.0043
     27 C          59.6504   90.8503   10.6979 C.ar    1  UNL1       -0.0003
     28 C          60.2588   89.7993    9.8174 C.ar    1  UNL1       -0.0000
     29 C          60.1319   88.3499   10.1822 C.ar    1  UNL1        0.0003
     30 C          59.3966   87.9515   11.4275 C.ar    1  UNL1       -0.0042
     31 C          56.6448   88.0955   13.4624 C.3     1  UNL1        0.0050
     32 C          58.0530   88.6042   13.5532 C.3     1  UNL1        0.0264
     33 C          62.3634   88.3868   10.7973 C.3     1  UNL1        0.0329
     34 C          63.3664   89.4172   11.2241 C.3     1  UNL1        0.0241
     35 C          62.9840   90.4664   12.2256 C.3     1  UNL1        0.0928
     36 N          62.2896   90.0732   13.4957 N.am    1  UNL1       -0.2707
     37 C          63.0902   89.7967   14.7336 C.2     1  UNL1        0.4017
     38 O          64.5854   89.9133   14.7015 O.2     1  UNL1       -0.2264
     39 H          61.3083   89.9967   13.5168 H       1  UNL1        0.1527
     40 O          62.3957   89.4035   16.0037 O.3     1  UNL1       -0.4306
     41 C          63.1105   88.5633   17.0202 C.3     1  UNL1        0.2573
@<TRIPOS>BOND
     1    31    32    1
     2    32    25    1
     3    25    26   ar
     4    26    27   ar
     5    27    28   ar
     6    28    29   ar
     7    29    18    1
     8    18    19   ar
     9    19    20    1
    10    19    21   ar
    11    21    22   ar
    12    22    23   ar
    13    23    24   ar
    14    24     1    1
    15     1     2    1
    16     1    33    1
    17    33    34    1
    18    34    35    1
    19    35    36    1
    20    36    37   am
    21    37    38    2
    22    37    40    1
    23    40    41    1
    24     4     1    1
    25     4     5    1
    26     5     6    1
    27     6     7    1
    28     7     8    1
    29     8     9   am
    30     9    10    2
    31     9    12    1
    32    12    13    1
    33    13    14    1
    34    14    15    1
    35    15    16    1
    36     8    11    1
    37    29    30   ar
    38    30    25   ar
    39    24    18   ar
    40    11     4    1
    41     2     3    1
    42    36    39    1
    43    15    17    1
@<TRIPOS>MOLECULE
*****
 41 43 0 0 0
SMALL
GASTEIGER

@<TRIPOS>ATOM
      1 C          62.8718   87.4653   11.1983 C.3     1  UNL1        0.1085
      2 O          63.5171   88.0584   12.4156 O.3     1  UNL1       -0.3826
      3 H          63.7023   88.9974   12.2583 H       1  UNL1        0.2107
      4 C          62.7962   86.1347   11.8866 C.3     1  UNL1        0.0484
      5 C          62.1138   86.0163   13.2171 C.3     1  UNL1        0.0061
      6 C          62.0382   84.6857   13.9055 C.3     1  UNL1        0.0217
      7 C          62.6450   83.4735   13.2633 C.3     1  UNL1        0.0934
      8 N          63.3274   83.5920   11.9328 N.am    1  UNL1       -0.2794
      9 C          63.9343   82.3797   11.2906 C.2     1  UNL1        0.2257
     10 O          64.6167   82.4982    9.9601 O.2     1  UNL1       -0.2749
     11 C          63.4031   84.9225   11.2444 C.3     1  UNL1        0.0960
     12 C          63.8587   81.0492   11.9789 C.3     1  UNL1        0.0867
     13 C          62.5235   80.4402   12.2894 C.3     1  UNL1        0.0266
     14 C          62.1789   80.0679   13.7011 C.3     1  UNL1        0.0691
     15 N          61.0615   80.7728   14.4112 N.3     1  UNL1       -0.2963
     16 C          59.6431   80.3327   14.2002 C.3     1  UNL1        0.0859
     17 H          61.1096   81.7536   14.1353 H       1  UNL1        0.1233
     18 C          60.8609   87.3274    9.5590 C.ar    1  UNL1        0.0088
     19 C          60.2156   86.7343    8.3417 C.ar    1  UNL1        0.0574
     20 CL         58.8500   87.1895    7.9197 Cl      1  UNL1       -0.0823
     21 C          60.9358   85.6860    7.5464 C.ar    1  UNL1        0.0114
     22 C          62.3013   85.2308    7.9684 C.ar    1  UNL1        0.0006
     23 C          62.9467   85.8239    9.1857 C.ar    1  UNL1       -0.0020
     24 C          62.2265   86.8722    9.9810 C.ar    1  UNL1        0.0026
     25 C          58.6472   89.0361   12.3750 C.ar    1  UNL1       -0.0222
     26 C          58.7004   90.4721   11.9449 C.ar    1  UNL1       -0.0043
     27 C          59.4737   90.8599   10.7195 C.ar    1  UNL1       -0.0003
     28 C          60.1939   89.8117    9.9242 C.ar    1  UNL1       -0.0000
     29 C          60.1407   88.3757   10.3543 C.ar    1  UNL1        0.0003
     30 C          59.3674   87.9879   11.5797 C.ar    1  UNL1       -0.0042
     31 C          56.5326   87.9908   13.4639 C.3     1  UNL1        0.0050
     32 C          57.8739   88.6483   13.6003 C.3     1  UNL1        0.0264
     33 C          62.9474   88.7959   10.5100 C.3     1  UNL1        0.0329
     34 C          63.1670   90.0440   11.3124 C.3     1  UNL1        0.0241
     35 C          63.5417   91.3225   10.6233 C.3     1  UNL1        0.0928
     36 N          64.8318   92.0079   10.9637 N.am    1  UNL1       -0.2707
     37 C          65.1781   92.2857   12.3965 C.2     1  UNL1        0.4017
     38 O          64.2342   91.8783   13.4889 O.2     1  UNL1       -0.2264
     39 H          65.4513   92.2753   10.2468 H       1  UNL1        0.1527
     40 O          66.4682   92.9711   12.7370 O.3     1  UNL1       -0.4306
     41 C          66.6037   93.7135   14.0334 C.3     1  UNL1        0.2573
@<TRIPOS>BOND
     1    31    32    1
     2    32    25    1
     3    25    26   ar
     4    26    27   ar
     5    27    28   ar
     6    28    29   ar
     7    29    18    1
     8    18    19   ar
     9    19    20    1
    10    19    21   ar
    11    21    22   ar
    12    22    23   ar
    13    23    24   ar
    14    24     1    1
    15     1     2    1
    16     1    33    1
    17    33    34    1
    18    34    35    1
    19    35    36    1
    20    36    37   am
    21    37    38    2
    22    37    40    1
    23    40    41    1
    24     4     1    1
    25     4     5    1
    26     5     6    1
    27     6     7    1
    28     7     8    1
    29     8     9   am
    30     9    10    2
    31     9    12    1
    32    12    13    1
    33    13    14    1
    34    14    15    1
    35    15    16    1
    36     8    11    1
    37    29    30   ar
    38    30    25   ar
    39    24    18   ar
    40    11     4    1
    41     2     3    1
    42    36    39    1
    43    15    17    1
@<TRIPOS>MOLECULE
*****
 41 43 0 0 0
SMALL
GASTEIGER

@<TRIPOS>ATOM
      1 C          62.7437   87.2070   10.8896 C.3     1  UNL1        0.1085
      2 O          63.4521   87.6444   12.1372 O.3     1  UNL1       -0.3826
      3 H          63.5532   88.6091   12.1303 H       1  UNL1        0.2107
      4 C          62.8283   85.7794   11.3421 C.3     1  UNL1        0.0484
      5 C          63.2591   84.7120   10.3803 C.3     1  UNL1        0.0061
      6 C          63.3437   83.2844   10.8329 C.3     1  UNL1        0.0217
      7 C          62.9975   82.9242   12.2472 C.3     1  UNL1        0.0934
      8 N          62.5667   83.9916   13.2090 N.am    1  UNL1       -0.2794
      9 C          62.2205   83.6313   14.6234 C.2     1  UNL1        0.2257
     10 O          61.7897   84.6987   15.5852 O.2     1  UNL1       -0.2749
     11 C          62.4821   85.4191   12.7565 C.3     1  UNL1        0.0960
     12 C          62.3051   82.2037   15.0759 C.3     1  UNL1        0.0867
     13 C          62.3722   81.0989   14.0637 C.3     1  UNL1        0.0266
     14 C          61.1669   80.2441   13.8053 C.3     1  UNL1        0.0691
     15 N          59.8218   80.6710   14.3137 N.3     1  UNL1       -0.2963
     16 C          58.7609   79.6449   14.5808 C.3     1  UNL1        0.0859
     17 H          59.4386   81.3183   13.6248 H       1  UNL1        0.1233
     18 C          60.7066   87.3674    9.2850 C.ar    1  UNL1        0.0088
     19 C          59.9981   86.9299    8.0374 C.ar    1  UNL1        0.0574
     20 CL         58.6695   87.5278    7.6805 Cl      1  UNL1       -0.0823
     21 C          60.6181   85.8944    7.1466 C.ar    1  UNL1        0.0114
     22 C          61.9467   85.2965    7.5035 C.ar    1  UNL1        0.0006
     23 C          62.6552   85.7340    8.7512 C.ar    1  UNL1       -0.0020
     24 C          62.0352   86.7694    9.6419 C.ar    1  UNL1        0.0026
     25 C          58.8680   89.0350   12.3815 C.ar    1  UNL1       -0.0222
     26 C          58.8464   90.4736   11.9573 C.ar    1  UNL1       -0.0043
     27 C          59.4449   90.8768   10.6423 C.ar    1  UNL1       -0.0003
     28 C          60.0650   89.8414    9.7515 C.ar    1  UNL1       -0.0000
     29 C          60.0865   88.4028   10.1758 C.ar    1  UNL1        0.0003
     30 C          59.4880   87.9996   11.4908 C.ar    1  UNL1       -0.0042
     31 C          59.0302   88.8615   14.9687 C.3     1  UNL1        0.0050
     32 C          58.2695   88.6318   13.6965 C.3     1  UNL1        0.0264
     33 C          62.6590   88.6346   10.4371 C.3     1  UNL1        0.0329
     34 C          63.0870   89.7395   11.3568 C.3     1  UNL1        0.0241
     35 C          63.3434   91.1128   10.8108 C.3     1  UNL1        0.0928
     36 N          64.6463   91.8007   11.0924 N.am    1  UNL1       -0.2707
     37 C          65.0083   92.1745   12.4992 C.2     1  UNL1        0.4017
     38 O          64.0674   91.8606   13.6245 O.2     1  UNL1       -0.2264
     39 H          65.2639   92.0068   10.3539 H       1  UNL1        0.1527
     40 O          66.3112   92.8624   12.7809 O.3     1  UNL1       -0.4306
     41 C          67.4317   92.1083   13.4335 C.3     1  UNL1        0.2573
@<TRIPOS>BOND
     1    31    32    1
     2    32    25    1
     3    25    26   ar
     4    26    27   ar
     5    27    28   ar
     6    28    29   ar
     7    29    18    1
     8    18    19   ar
     9    19    20    1
    10    19    21   ar
    11    21    22   ar
    12    22    23   ar
    13    23    24   ar
    14    24     1    1
    15     1     2    1
    16     1    33    1
    17    33    34    1
    18    34    35    1
    19    35    36    1
    20    36    37   am
    21    37    38    2
    22    37    40    1
    23    40    41    1
    24     4     1    1
    25     4     5    1
    26     5     6    1
    27     6     7    1
    28     7     8    1
    29     8     9   am
    30     9    10    2
    31     9    12    1
    32    12    13    1
    33    13    14    1
    34    14    15    1
    35    15    16    1
    36     8    11    1
    37    29    30   ar
    38    30    25   ar
    39    24    18   ar
    40    11     4    1
    41     2     3    1
    42    36    39    1
    43    15    17    1
@<TRIPOS>MOLECULE
*****
 41 43 0 0 0
SMALL
GASTEIGER

@<TRIPOS>ATOM
      1 C          62.3531   86.7783   11.6275 C.3     1  UNL1        0.1085
      2 O          62.7895   86.9434   13.0531 O.3     1  UNL1       -0.3826
      3 H          62.5953   86.1314   13.5468 H       1  UNL1        0.2107
      4 C          62.8259   88.1686   11.3218 C.3     1  UNL1        0.0484
      5 C          62.6717   88.7259    9.9377 C.3     1  UNL1        0.0061
      6 C          63.1445   90.1162    9.6320 C.3     1  UNL1        0.0217
      7 C          63.7715   90.9493   10.7104 C.3     1  UNL1        0.0934
      8 N          63.9256   90.3921   12.0945 N.am    1  UNL1       -0.2794
      9 C          64.5526   91.2252   13.1729 C.2     1  UNL1        0.2257
     10 O          64.7068   90.6680   14.5570 O.2     1  UNL1       -0.2749
     11 C          63.4529   89.0018   12.4002 C.3     1  UNL1        0.0960
     12 C          65.0254   92.6155   12.8671 C.3     1  UNL1        0.0867
     13 C          66.4588   92.8556   12.4962 C.3     1  UNL1        0.0266
     14 C          67.5579   92.2540   13.3210 C.3     1  UNL1        0.0691
     15 N          68.0644   92.9742   14.5353 N.3     1  UNL1       -0.2963
     16 C          67.3230   92.8664   15.8348 C.3     1  UNL1        0.0859
     17 H          68.0984   93.9654   14.2970 H       1  UNL1        0.1233
     18 C          60.7649   87.4152    9.6725 C.ar    1  UNL1        0.0088
     19 C          60.3285   87.2502    8.2469 C.ar    1  UNL1        0.0574
     20 CL         59.1767   88.0521    7.7175 Cl      1  UNL1       -0.0823
     21 C          61.0440   86.2832    7.3507 C.ar    1  UNL1        0.0114
     22 C          62.1958   85.4813    7.8801 C.ar    1  UNL1        0.0006
     23 C          62.6321   85.6463    9.3057 C.ar    1  UNL1       -0.0020
     24 C          61.9167   86.6133   10.2019 C.ar    1  UNL1        0.0026
     25 C          58.4830   88.8398   12.5902 C.ar    1  UNL1       -0.0222
     26 C          58.6187   90.3160   12.3612 C.ar    1  UNL1       -0.0043
     27 C          59.4699   90.8252   11.2359 C.ar    1  UNL1       -0.0003
     28 C          60.1853   89.8583   10.3397 C.ar    1  UNL1       -0.0000
     29 C          60.0495   88.3822   10.5687 C.ar    1  UNL1        0.0003
     30 C          59.1984   87.8729   11.6940 C.ar    1  UNL1       -0.0042
     31 C          56.2316   87.8654   13.4456 C.3     1  UNL1        0.0050
     32 C          57.6319   88.3306   13.7155 C.3     1  UNL1        0.0264
     33 C          61.8804   85.3880   11.9333 C.3     1  UNL1        0.0329
     34 C          62.8573   84.3487   12.3973 C.3     1  UNL1        0.0241
     35 C          62.6965   83.7185   13.7489 C.3     1  UNL1        0.0928
     36 N          61.9213   84.4276   14.8196 N.am    1  UNL1       -0.2707
     37 C          62.6446   85.1026   15.9469 C.2     1  UNL1        0.4017
     38 O          64.1432   85.0687   16.0037 O.2     1  UNL1       -0.2264
     39 H          60.9378   84.4499   14.7823 H       1  UNL1        0.1527
     40 O          61.8694   85.8117   17.0176 O.3     1  UNL1       -0.4306
     41 C          62.5891   86.6370   18.0428 C.3     1  UNL1        0.2573
@<TRIPOS>BOND
     1    31    32    1
     2    32    25    1
     3    25    26   ar
     4    26    27   ar
     5    27    28   ar
     6    28    29   ar
     7    29    18    1
     8    18    19   ar
     9    19    20    1
    10    19    21   ar
    11    21    22   ar
    12    22    23   ar
    13    23    24   ar
    14    24     1    1
    15     1     2    1
    16     1    33    1
    17    33    34    1
    18    34    35    1
    19    35    36    1
    20    36    37   am
    21    37    38    2
    22    37    40    1
    23    40    41    1
    24     4     1    1
    25     4     5    1
    26     5     6    1
    27     6     7    1
    28     7     8    1
    29     8     9   am
    30     9    10    2
    31     9    12    1
    32    12    13    1
    33    13    14    1
    34    14    15    1
    35    15    16    1
    36     8    11    1
    37    29    30   ar
    38    30    25   ar
    39    24    18   ar
    40    11     4    1
    41     2     3    1
    42    36    39    1
    43    15    17    1
