@<TRIPOS>MOLECULE
*****
 31 34 0 0 0
SMALL
GASTEIGER

@<TRIPOS>ATOM
      1 C          63.3302   88.3569   16.2199 C.ar    1  UNL1        0.0678
      2 C          62.4331   87.8162   17.2936 C.ar    1  UNL1        0.0055
      3 C          62.3870   86.3408   17.5601 C.ar    1  UNL1        0.0016
      4 C          63.2381   85.4060   16.7528 C.ar    1  UNL1        0.0181
      5 C          64.1353   85.9466   15.6791 C.ar    1  UNL1        0.0922
      6 C          64.1813   87.4220   15.4126 C.ar    1  UNL1        0.1576
      7 F          65.0785   87.9626   14.3389 F       1  UNL1       -0.2027
      8 C          63.3762   89.8323   15.9534 C.2     1  UNL1        0.2014
      9 O          63.1333   90.8040   17.0700 O.2     1  UNL1       -0.2864
     10 C          66.8997   92.7607   14.3025 C.2     1  UNL1        0.0974
     11 C          66.8085   93.0059   12.8255 C.2     1  UNL1        0.2421
     12 N          65.7099   92.3702   12.0261 N.2     1  UNL1       -0.0304
     13 C          64.7024   91.4895   12.7037 C.2     1  UNL1        0.3721
     14 N          63.5178   90.7326   12.1805 N.2     1  UNL1       -0.0307
     15 C          62.8768   90.0196   13.3342 C.2     1  UNL1        0.2390
     16 C          63.6653   90.3359   14.5704 C.2     1  UNL1        0.0895
     17 C          64.7936   91.2444   14.1807 C.2     1  UNL1        0.0782
     18 C          65.8922   91.8800   14.9801 C.3     1  UNL1        0.0751
     19 N          69.0969   94.0320   15.9012 N.1     1  UNL1       -0.1910
     20 C          67.9983   93.3964   15.1018 C.1     1  UNL1        0.1003
     21 N          64.9864   85.0117   14.8718 N.pl3   1  UNL1       -0.2128
     22 H          65.9608   85.1456   14.8294 H       1  UNL1        0.1738
     23 S          64.3528   83.8729   14.1291 S.O2    1  UNL1        0.0736
     24 O          64.6400   82.9599   15.2840 O.2     1  UNL1       -0.1499
     25 O          64.0656   84.7859   12.9742 O.2     1  UNL1       -0.1499
     26 C          63.7192   82.7340   13.3864 C.ar    1  UNL1        0.1252
     27 C          63.8865   82.6227   11.8999 C.ar    1  UNL1        0.0202
     28 C          63.2529   81.4839   11.1571 C.ar    1  UNL1        0.0014
     29 C          62.4521   80.4564   11.9008 C.ar    1  UNL1        0.0001
     30 C          62.2849   80.5677   13.3873 C.ar    1  UNL1        0.0014
     31 C          62.9184   81.7065   14.1300 C.ar    1  UNL1        0.0202
@<TRIPOS>BOND
     1    19    20    3
     2    20    10    1
     3    10    11    2
     4    11    12    1
     5    12    13    2
     6    13    14    1
     7    14    15    2
     8    15    16    1
     9    16     8    1
    10     8     9    2
    11     8     1    1
    12     1     2   ar
    13     2     3   ar
    14     3     4   ar
    15     4     5   ar
    16     5    21    1
    17    21    23    1
    18    23    24    2
    19    23    25    2
    20    23    26    1
    21    26    27   ar
    22    27    28   ar
    23    28    29   ar
    24    29    30   ar
    25    30    31   ar
    26     5     6   ar
    27     6     7    1
    28    16    17    2
    29    17    18    1
    30    18    10    1
    31    17    13    1
    32     6     1   ar
    33    31    26   ar
    34    21    22    1
@<TRIPOS>MOLECULE
*****
 31 34 0 0 0
SMALL
GASTEIGER

@<TRIPOS>ATOM
      1 C          60.9714   88.7920    9.8370 C.ar    1  UNL1        0.0678
      2 C          59.9175   88.6291    8.7822 C.ar    1  UNL1        0.0055
      3 C          59.8630   87.3731    7.9640 C.ar    1  UNL1        0.0016
      4 C          60.8624   86.2799    8.2007 C.ar    1  UNL1        0.0181
      5 C          61.9164   86.4428    9.2556 C.ar    1  UNL1        0.0922
      6 C          61.9709   87.6988   10.0738 C.ar    1  UNL1        0.1576
      7 F          63.0248   87.8616   11.1286 F       1  UNL1       -0.2027
      8 C          61.0259   90.0480   10.6552 C.2     1  UNL1        0.2014
      9 O          59.7594   90.6570   11.1797 O.2     1  UNL1       -0.2864
     10 C          63.7516   90.0338   14.6909 C.2     1  UNL1        0.0974
     11 C          65.0179   90.8237   14.5409 C.2     1  UNL1        0.2421
     12 N          65.3239   91.5109   13.2432 N.2     1  UNL1       -0.0304
     13 C          64.3637   91.4082   12.0954 C.2     1  UNL1        0.3721
     14 N          64.3958   91.9733   10.7063 N.2     1  UNL1       -0.0307
     15 C          63.1493   91.5325    9.9977 C.2     1  UNL1        0.2390
     16 C          62.3469   90.6951   10.9489 C.2     1  UNL1        0.0895
     17 C          63.0975   90.6183   12.2454 C.2     1  UNL1        0.0782
     18 C          62.7914   89.9310   13.5431 C.3     1  UNL1        0.0751
     19 N          63.1395   88.6593   17.2863 N.1     1  UNL1       -0.1910
     20 C          63.4456   89.3465   15.9886 C.1     1  UNL1        0.1003
     21 N          62.9158   85.3496    9.4922 N.pl3   1  UNL1       -0.2128
     22 H          63.6520   85.2090    8.8539 H       1  UNL1        0.1738
     23 S          62.7936   84.4706   10.7015 S.O2    1  UNL1        0.0736
     24 O          63.9816   83.6769   10.2448 O.2     1  UNL1       -0.1499
     25 O          61.6056   85.2642   11.1584 O.2     1  UNL1       -0.1499
     26 C          62.6713   83.5915   11.9109 C.ar    1  UNL1        0.1252
     27 C          62.5972   84.2035   13.2784 C.ar    1  UNL1        0.0202
     28 C          62.4749   83.3246   14.4877 C.ar    1  UNL1        0.0014
     29 C          62.4268   81.8337   14.3296 C.ar    1  UNL1        0.0001
     30 C          62.5010   81.2218   12.9622 C.ar    1  UNL1        0.0014
     31 C          62.6232   82.1007   11.7528 C.ar    1  UNL1        0.0202
@<TRIPOS>BOND
     1    19    20    3
     2    20    10    1
     3    10    11    2
     4    11    12    1
     5    12    13    2
     6    13    14    1
     7    14    15    2
     8    15    16    1
     9    16     8    1
    10     8     9    2
    11     8     1    1
    12     1     2   ar
    13     2     3   ar
    14     3     4   ar
    15     4     5   ar
    16     5    21    1
    17    21    23    1
    18    23    24    2
    19    23    25    2
    20    23    26    1
    21    26    27   ar
    22    27    28   ar
    23    28    29   ar
    24    29    30   ar
    25    30    31   ar
    26     5     6   ar
    27     6     7    1
    28    16    17    2
    29    17    18    1
    30    18    10    1
    31    17    13    1
    32     6     1   ar
    33    31    26   ar
    34    21    22    1
@<TRIPOS>MOLECULE
*****
 31 34 0 0 0
SMALL
GASTEIGER

@<TRIPOS>ATOM
      1 C          63.6467   89.0473   16.0181 C.ar    1  UNL1        0.0678
      2 C          62.9848   88.4924   17.2444 C.ar    1  UNL1        0.0055
      3 C          62.8772   87.0081   17.4321 C.ar    1  UNL1        0.0016
      4 C          63.4316   86.0786   16.3934 C.ar    1  UNL1        0.0181
      5 C          64.0935   86.6336   15.1671 C.ar    1  UNL1        0.0922
      6 C          64.2011   88.1179   14.9794 C.ar    1  UNL1        0.1576
      7 F          64.8630   88.6728   13.7530 F       1  UNL1       -0.2027
      8 C          63.7543   90.5316   15.8304 C.2     1  UNL1        0.2014
      9 O          63.1404   91.4611   16.8350 O.2     1  UNL1       -0.2864
     10 C          62.4480   90.7713   11.1451 C.2     1  UNL1        0.0974
     11 C          63.4912   91.4170   10.2822 C.2     1  UNL1        0.2421
     12 N          64.7714   91.9060   10.8921 N.2     1  UNL1       -0.0304
     13 C          65.0084   91.7493   12.3649 C.2     1  UNL1        0.3721
     14 N          66.1638   92.1312   13.2418 N.2     1  UNL1       -0.0307
     15 C          65.8347   91.7216   14.6468 C.2     1  UNL1        0.2390
     16 C          64.4758   91.0865   14.6382 C.2     1  UNL1        0.0895
     17 C          63.9652   91.1036   13.2278 C.2     1  UNL1        0.0782
     18 C          62.6850   90.6146   12.6179 C.3     1  UNL1        0.0751
     19 N          59.8876   89.7933    9.9253 N.1     1  UNL1       -0.1910
     20 C          61.1678   90.2823   10.5352 C.1     1  UNL1        0.1003
     21 N          64.6478   85.7041   14.1284 N.pl3   1  UNL1       -0.2128
     22 H          65.4543   85.9556   13.6229 H       1  UNL1        0.1738
     23 S          63.9733   84.3915   13.8599 S.O2    1  UNL1        0.0736
     24 O          63.1052   85.0486   12.8281 O.2     1  UNL1       -0.1499
     25 O          64.8414   83.7344   14.8916 O.2     1  UNL1       -0.1499
     26 C          63.2988   83.0788   13.5914 C.ar    1  UNL1        0.1252
     27 C          63.6315   82.3048   12.3503 C.ar    1  UNL1        0.0202
     28 C          62.9570   80.9922   12.0818 C.ar    1  UNL1        0.0014
     29 C          61.9500   80.4536   13.0543 C.ar    1  UNL1        0.0001
     30 C          61.6174   81.2276   14.2954 C.ar    1  UNL1        0.0014
     31 C          62.2918   82.5402   14.5639 C.ar    1  UNL1        0.0202
@<TRIPOS>BOND
     1    19    20    3
     2    20    10    1
     3    10    11    2
     4    11    12    1
     5    12    13    2
     6    13    14    1
     7    14    15    2
     8    15    16    1
     9    16     8    1
    10     8     9    2
    11     8     1    1
    12     1     2   ar
    13     2     3   ar
    14     3     4   ar
    15     4     5   ar
    16     5    21    1
    17    21    23    1
    18    23    24    2
    19    23    25    2
    20    23    26    1
    21    26    27   ar
    22    27    28   ar
    23    28    29   ar
    24    29    30   ar
    25    30    31   ar
    26     5     6   ar
    27     6     7    1
    28    16    17    2
    29    17    18    1
    30    18    10    1
    31    17    13    1
    32     6     1   ar
    33    31    26   ar
    34    21    22    1
@<TRIPOS>MOLECULE
*****
 31 34 0 0 0
SMALL
GASTEIGER

@<TRIPOS>ATOM
      1 C          64.5380   91.1992   12.7287 C.ar    1  UNL1        0.0678
      2 C          65.2611   91.9809   11.6723 C.ar    1  UNL1        0.0055
      3 C          64.6255   92.1949   10.3306 C.ar    1  UNL1        0.0016
      4 C          63.2668   91.6271   10.0452 C.ar    1  UNL1        0.0181
      5 C          62.5437   90.8452   11.1016 C.ar    1  UNL1        0.0922
      6 C          63.1793   90.6313   12.4433 C.ar    1  UNL1        0.1576
      7 F          62.4561   89.8495   13.4996 F       1  UNL1       -0.2027
      8 C          65.1735   90.9852   14.0704 C.2     1  UNL1        0.2014
      9 O          66.6141   91.3449   14.2839 O.2     1  UNL1       -0.2864
     10 C          64.0865   86.3702   15.1823 C.2     1  UNL1        0.0974
     11 C          63.2427   86.2520   16.4167 C.2     1  UNL1        0.2421
     12 N          62.8277   87.4856   17.1624 N.2     1  UNL1       -0.0304
     13 C          63.2564   88.8373   16.6736 C.2     1  UNL1        0.3721
     14 N          63.0032   90.2204   17.1961 N.2     1  UNL1       -0.0307
     15 C          63.6906   91.1934   16.2846 C.2     1  UNL1        0.2390
     16 C          64.3686   90.4116   15.1987 C.2     1  UNL1        0.0895
     17 C          64.1002   88.9555   15.4392 C.2     1  UNL1        0.0782
     18 C          64.5153   87.7219   14.6935 C.3     1  UNL1        0.0751
     19 N          64.9166   83.9031   13.6909 N.1     1  UNL1       -0.1910
     20 C          64.5016   85.1366   14.4366 C.1     1  UNL1        0.1003
     21 N          61.1850   90.2774   10.8161 N.pl3   1  UNL1       -0.2128
     22 H          60.3825   90.7114   11.1860 H       1  UNL1        0.1738
     23 S          61.0490   89.0483    9.9672 S.O2    1  UNL1        0.0736
     24 O          62.0510   88.3410   10.8306 O.2     1  UNL1       -0.1499
     25 O          60.0470   89.7556    9.1037 O.2     1  UNL1       -0.1499
     26 C          60.9130   87.8191    9.1181 C.ar    1  UNL1        0.1252
     27 C          59.6357   87.5575    8.3765 C.ar    1  UNL1        0.0202
     28 C          59.4996   86.3285    7.5275 C.ar    1  UNL1        0.0014
     29 C          60.6409   85.3610    7.4201 C.ar    1  UNL1        0.0001
     30 C          61.9182   85.6226    8.1617 C.ar    1  UNL1        0.0014
     31 C          62.0543   86.8516    9.0107 C.ar    1  UNL1        0.0202
@<TRIPOS>BOND
     1    19    20    3
     2    20    10    1
     3    10    11    2
     4    11    12    1
     5    12    13    2
     6    13    14    1
     7    14    15    2
     8    15    16    1
     9    16     8    1
    10     8     9    2
    11     8     1    1
    12     1     2   ar
    13     2     3   ar
    14     3     4   ar
    15     4     5   ar
    16     5    21    1
    17    21    23    1
    18    23    24    2
    19    23    25    2
    20    23    26    1
    21    26    27   ar
    22    27    28   ar
    23    28    29   ar
    24    29    30   ar
    25    30    31   ar
    26     5     6   ar
    27     6     7    1
    28    16    17    2
    29    17    18    1
    30    18    10    1
    31    17    13    1
    32     6     1   ar
    33    31    26   ar
    34    21    22    1
@<TRIPOS>MOLECULE
*****
 31 34 0 0 0
SMALL
GASTEIGER

@<TRIPOS>ATOM
      1 C          61.9614   90.7271   11.0465 C.ar    1  UNL1        0.0678
      2 C          62.9060   91.3475   10.0602 C.ar    1  UNL1        0.0055
      3 C          64.2564   91.8205   10.5104 C.ar    1  UNL1        0.0016
      4 C          64.6623   91.6731   11.9469 C.ar    1  UNL1        0.0181
      5 C          63.7176   91.0526   12.9332 C.ar    1  UNL1        0.0922
      6 C          62.3671   90.5797   12.4831 C.ar    1  UNL1        0.1576
      7 F          61.4226   89.9593   13.4694 F       1  UNL1       -0.2027
      8 C          60.6110   90.2541   10.5963 C.2     1  UNL1        0.2014
      9 O          59.3703   90.8692   11.1728 O.2     1  UNL1       -0.2864
     10 C          62.2636   85.6732   10.6217 C.2     1  UNL1        0.0974
     11 C          61.9221   84.9242    9.3679 C.2     1  UNL1        0.2421
     12 N          61.1484   85.6023    8.2762 N.2     1  UNL1       -0.0304
     13 C          60.7163   87.0295    8.4385 C.2     1  UNL1        0.3721
     14 N          59.9487   87.9541    7.5407 N.2     1  UNL1       -0.0307
     15 C          59.8158   89.2746    8.2398 C.2     1  UNL1        0.2390
     16 C          60.5013   89.1661    9.5696 C.2     1  UNL1        0.0895
     17 C          61.0578   87.7786    9.6924 C.2     1  UNL1        0.0782
     18 C          61.8315   87.1004   10.7840 C.3     1  UNL1        0.0751
     19 N          63.8108   84.3170   12.8050 N.1     1  UNL1       -0.1910
     20 C          63.0372   84.9951   11.7134 C.1     1  UNL1        0.1003
     21 N          64.1234   90.9052   14.3698 N.pl3   1  UNL1       -0.2128
     22 H          64.5489   91.6577   14.8408 H       1  UNL1        0.1738
     23 S          63.8808   89.6112   15.0886 S.O2    1  UNL1        0.0736
     24 O          63.1302   90.3465   16.1590 O.2     1  UNL1       -0.1499
     25 O          64.6315   88.8759   14.0182 O.2     1  UNL1       -0.1499
     26 C          63.6383   88.3172   15.8075 C.ar    1  UNL1        0.1252
     27 C          64.0960   87.0245   15.1997 C.ar    1  UNL1        0.0202
     28 C          63.8535   85.7304   15.9185 C.ar    1  UNL1        0.0014
     29 C          63.1533   85.7291   17.2451 C.ar    1  UNL1        0.0001
     30 C          62.6957   87.0218   17.8529 C.ar    1  UNL1        0.0014
     31 C          62.9382   88.3159   17.1341 C.ar    1  UNL1        0.0202
@<TRIPOS>BOND
     1    19    20    3
     2    20    10    1
     3    10    11    2
     4    11    12    1
     5    12    13    2
     6    13    14    1
     7    14    15    2
     8    15    16    1
     9    16     8    1
    10     8     9    2
    11     8     1    1
    12     1     2   ar
    13     2     3   ar
    14     3     4   ar
    15     4     5   ar
    16     5    21    1
    17    21    23    1
    18    23    24    2
    19    23    25    2
    20    23    26    1
    21    26    27   ar
    22    27    28   ar
    23    28    29   ar
    24    29    30   ar
    25    30    31   ar
    26     5     6   ar
    27     6     7    1
    28    16    17    2
    29    17    18    1
    30    18    10    1
    31    17    13    1
    32     6     1   ar
    33    31    26   ar
    34    21    22    1
@<TRIPOS>MOLECULE
*****
 31 34 0 0 0
SMALL
GASTEIGER

@<TRIPOS>ATOM
      1 C          64.1732   86.2215   15.4816 C.ar    1  UNL1        0.0678
      2 C          63.4167   85.6037   16.6200 C.ar    1  UNL1        0.0055
      3 C          62.6401   86.4730   17.5640 C.ar    1  UNL1        0.0016
      4 C          62.6200   87.9602   17.3696 C.ar    1  UNL1        0.0181
      5 C          63.3765   88.5781   16.2312 C.ar    1  UNL1        0.0922
      6 C          64.1531   87.7088   15.2871 C.ar    1  UNL1        0.1576
      7 F          64.9095   88.3267   14.1487 F       1  UNL1       -0.2027
      8 C          64.9498   85.3522   14.5376 C.2     1  UNL1        0.2014
      9 O          66.4392   85.2397   14.6747 O.2     1  UNL1       -0.2864
     10 C          61.8846   86.8764   11.0737 C.2     1  UNL1        0.0974
     11 C          61.4018   85.7627   10.1924 C.2     1  UNL1        0.2421
     12 N          61.8715   84.3586   10.4329 N.2     1  UNL1       -0.0304
     13 C          62.8239   84.0681   11.5547 C.2     1  UNL1        0.3721
     14 N          63.4556   82.7935   12.0304 N.2     1  UNL1       -0.0307
     15 C          64.3289   83.1193   13.2057 C.2     1  UNL1        0.2390
     16 C          64.2369   84.5954   13.4564 C.2     1  UNL1        0.0895
     17 C          63.3067   85.1817   12.4360 C.2     1  UNL1        0.0782
     18 C          62.8371   86.5859   12.1955 C.3     1  UNL1        0.0751
     19 N          60.9454   89.6846   10.5927 N.1     1  UNL1       -0.1910
     20 C          61.4150   88.2805   10.8332 C.1     1  UNL1        0.1003
     21 N          63.3564   90.0653   16.0368 N.pl3   1  UNL1       -0.2128
     22 H          63.0393   90.6521   16.7609 H       1  UNL1        0.1738
     23 S          63.8193   90.6584   14.7392 S.O2    1  UNL1        0.0736
     24 O          65.0374   91.2043   15.4232 O.2     1  UNL1       -0.1499
     25 O          62.6011   90.1125   14.0550 O.2     1  UNL1       -0.1499
     26 C          64.2822   91.2516   13.4414 C.ar    1  UNL1        0.1252
     27 C          65.5094   92.1133   13.4062 C.ar    1  UNL1        0.0202
     28 C          65.9724   92.7065   12.1086 C.ar    1  UNL1        0.0014
     29 C          65.2081   92.4378   10.8462 C.ar    1  UNL1        0.0001
     30 C          63.9808   91.5761   10.8814 C.ar    1  UNL1        0.0014
     31 C          63.5179   90.9829   12.1790 C.ar    1  UNL1        0.0202
@<TRIPOS>BOND
     1    19    20    3
     2    20    10    1
     3    10    11    2
     4    11    12    1
     5    12    13    2
     6    13    14    1
     7    14    15    2
     8    15    16    1
     9    16     8    1
    10     8     9    2
    11     8     1    1
    12     1     2   ar
    13     2     3   ar
    14     3     4   ar
    15     4     5   ar
    16     5    21    1
    17    21    23    1
    18    23    24    2
    19    23    25    2
    20    23    26    1
    21    26    27   ar
    22    27    28   ar
    23    28    29   ar
    24    29    30   ar
    25    30    31   ar
    26     5     6   ar
    27     6     7    1
    28    16    17    2
    29    17    18    1
    30    18    10    1
    31    17    13    1
    32     6     1   ar
    33    31    26   ar
    34    21    22    1
@<TRIPOS>MOLECULE
*****
 31 34 0 0 0
SMALL
GASTEIGER

@<TRIPOS>ATOM
      1 C          62.9398   89.1532   12.6006 C.ar    1  UNL1        0.0678
      2 C          63.5935   88.3919   13.7155 C.ar    1  UNL1        0.0055
      3 C          64.6907   89.0286   14.5160 C.ar    1  UNL1        0.0016
      4 C          65.1342   90.4266   14.2016 C.ar    1  UNL1        0.0181
      5 C          64.4804   91.1879   13.0866 C.ar    1  UNL1        0.0922
      6 C          63.3833   90.5512   12.2861 C.ar    1  UNL1        0.1576
      7 F          62.7296   91.3126   11.1712 F       1  UNL1       -0.2027
      8 C          61.8426   88.5165   11.8001 C.2     1  UNL1        0.2014
      9 O          60.4272   88.9865   11.9609 O.2     1  UNL1       -0.2864
     10 C          63.2929   83.9344   12.5859 C.2     1  UNL1        0.0974
     11 C          63.4980   83.1629   11.3160 C.2     1  UNL1        0.2421
     12 N          63.2557   83.8219    9.9905 N.2     1  UNL1       -0.0304
     13 C          62.8082   85.2525    9.9348 C.2     1  UNL1        0.3721
     14 N          62.4929   86.1615    8.7841 N.2     1  UNL1       -0.0307
     15 C          62.0927   87.4948    9.3427 C.2     1  UNL1        0.2390
     16 C          62.1608   87.4099   10.8388 C.2     1  UNL1        0.0895
     17 C          62.6030   86.0240   11.2047 C.2     1  UNL1        0.0782
     18 C          62.8454   85.3650   12.5302 C.3     1  UNL1        0.0751
     19 N          63.7775   82.6164   15.2369 N.1     1  UNL1       -0.1910
     20 C          63.5352   83.2754   13.9114 C.1     1  UNL1        0.1003
     21 N          64.9240   92.5859   12.7722 N.pl3   1  UNL1       -0.2128
     22 H          64.6099   93.3379   13.3245 H       1  UNL1        0.1738
     23 S          65.8461   92.8381   11.6163 S.O2    1  UNL1        0.0736
     24 O          64.6653   93.1235   10.7365 O.2     1  UNL1       -0.1499
     25 O          67.0270   92.5528   12.4961 O.2     1  UNL1       -0.1499
     26 C          66.7683   93.0904   10.4604 C.ar    1  UNL1        0.1252
     27 C          67.8216   92.0824   10.1076 C.ar    1  UNL1        0.0202
     28 C          68.7438   92.3346    8.9518 C.ar    1  UNL1        0.0014
     29 C          68.6126   93.5947    8.1487 C.ar    1  UNL1        0.0001
     30 C          67.5593   94.6026    8.5015 C.ar    1  UNL1        0.0014
     31 C          66.6371   94.3505    9.6573 C.ar    1  UNL1        0.0202
@<TRIPOS>BOND
     1    19    20    3
     2    20    10    1
     3    10    11    2
     4    11    12    1
     5    12    13    2
     6    13    14    1
     7    14    15    2
     8    15    16    1
     9    16     8    1
    10     8     9    2
    11     8     1    1
    12     1     2   ar
    13     2     3   ar
    14     3     4   ar
    15     4     5   ar
    16     5    21    1
    17    21    23    1
    18    23    24    2
    19    23    25    2
    20    23    26    1
    21    26    27   ar
    22    27    28   ar
    23    28    29   ar
    24    29    30   ar
    25    30    31   ar
    26     5     6   ar
    27     6     7    1
    28    16    17    2
    29    17    18    1
    30    18    10    1
    31    17    13    1
    32     6     1   ar
    33    31    26   ar
    34    21    22    1
@<TRIPOS>MOLECULE
*****
 31 34 0 0 0
SMALL
GASTEIGER

@<TRIPOS>ATOM
      1 C          63.3613   88.5081   15.7964 C.ar    1  UNL1        0.0678
      2 C          62.8445   88.5833   17.2026 C.ar    1  UNL1        0.0055
      3 C          62.7535   87.3394   18.0358 C.ar    1  UNL1        0.0016
      4 C          63.1794   86.0201   17.4629 C.ar    1  UNL1        0.0181
      5 C          63.6962   85.9449   16.0567 C.ar    1  UNL1        0.0922
      6 C          63.7871   87.1889   15.2235 C.ar    1  UNL1        0.1576
      7 F          64.3039   87.1136   13.8173 F       1  UNL1       -0.2027
      8 C          63.4522   89.7521   14.9632 C.2     1  UNL1        0.2014
      9 O          62.7272   89.8315   13.6525 O.2     1  UNL1       -0.2864
     10 C          66.9123   92.3472   12.7250 C.2     1  UNL1        0.0974
     11 C          67.4710   93.4393   13.5882 C.2     1  UNL1        0.2421
     12 N          66.9526   93.6325   14.9825 N.2     1  UNL1       -0.0304
     13 C          65.8756   92.7337   15.5135 C.2     1  UNL1        0.3721
     14 N          65.1722   92.6837   16.8374 N.2     1  UNL1       -0.0307
     15 C          64.1788   91.5607   16.7924 C.2     1  UNL1        0.2390
     16 C          64.2682   90.9166   15.4407 C.2     1  UNL1        0.0895
     17 C          65.3169   91.6416   14.6503 C.2     1  UNL1        0.0782
     18 C          65.8352   91.4483   13.2560 C.3     1  UNL1        0.0751
     19 N          67.9490   91.9607    9.9365 N.1     1  UNL1       -0.1910
     20 C          67.4306   92.1539   11.3307 C.1     1  UNL1        0.1003
     21 N          64.1221   84.6257   15.4838 N.pl3   1  UNL1       -0.2128
     22 H          64.5068   83.9353   16.0708 H       1  UNL1        0.1738
     23 S          63.9617   84.3583   14.0166 S.O2    1  UNL1        0.0736
     24 O          65.4519   84.2732   13.8691 O.2     1  UNL1       -0.1499
     25 O          62.4714   84.4433   14.1640 O.2     1  UNL1       -0.1499
     26 C          63.8012   84.0909   12.5493 C.ar    1  UNL1        0.1252
     27 C          62.9576   85.0028   11.7087 C.ar    1  UNL1        0.0202
     28 C          62.7971   84.7355   10.2415 C.ar    1  UNL1        0.0014
     29 C          63.4802   83.5562    9.6148 C.ar    1  UNL1        0.0001
     30 C          64.3238   82.6442   10.4554 C.ar    1  UNL1        0.0014
     31 C          64.4843   82.9116   11.9227 C.ar    1  UNL1        0.0202
@<TRIPOS>BOND
     1    19    20    3
     2    20    10    1
     3    10    11    2
     4    11    12    1
     5    12    13    2
     6    13    14    1
     7    14    15    2
     8    15    16    1
     9    16     8    1
    10     8     9    2
    11     8     1    1
    12     1     2   ar
    13     2     3   ar
    14     3     4   ar
    15     4     5   ar
    16     5    21    1
    17    21    23    1
    18    23    24    2
    19    23    25    2
    20    23    26    1
    21    26    27   ar
    22    27    28   ar
    23    28    29   ar
    24    29    30   ar
    25    30    31   ar
    26     5     6   ar
    27     6     7    1
    28    16    17    2
    29    17    18    1
    30    18    10    1
    31    17    13    1
    32     6     1   ar
    33    31    26   ar
    34    21    22    1
@<TRIPOS>MOLECULE
*****
 31 34 0 0 0
SMALL
GASTEIGER

@<TRIPOS>ATOM
      1 C          62.4478   88.7519   11.2004 C.ar    1  UNL1        0.0678
      2 C          61.4108   88.2285   10.2515 C.ar    1  UNL1        0.0055
      3 C          61.0526   86.7719   10.2607 C.ar    1  UNL1        0.0016
      4 C          61.7314   85.8387   11.2190 C.ar    1  UNL1        0.0181
      5 C          62.7685   86.3622   12.1680 C.ar    1  UNL1        0.0922
      6 C          63.1267   87.8188   12.1588 C.ar    1  UNL1        0.1576
      7 F          64.1637   88.3421   13.1078 F       1  UNL1       -0.2027
      8 C          62.8060   90.2085   11.1912 C.2     1  UNL1        0.2014
      9 O          62.5141   91.0449    9.9807 O.2     1  UNL1       -0.2864
     10 C          66.4714   93.3960   11.5386 C.2     1  UNL1        0.0974
     11 C          66.8021   93.7504   12.9581 C.2     1  UNL1        0.2421
     12 N          66.0272   93.1343   14.0850 N.2     1  UNL1       -0.0304
     13 C          64.9215   92.1638   13.7924 C.2     1  UNL1        0.3721
     14 N          63.9911   91.4021   14.6892 N.2     1  UNL1       -0.0307
     15 C          63.0853   90.5769   13.8239 C.2     1  UNL1        0.2390
     16 C          63.4560   90.8286   12.3924 C.2     1  UNL1        0.0895
     17 C          64.5908   91.8094   12.3730 C.2     1  UNL1        0.0782
     18 C          65.3658   92.4255   11.2461 C.3     1  UNL1        0.0751
     19 N          68.0213   94.6281    9.2848 N.1     1  UNL1       -0.1910
     20 C          67.2464   94.0120   10.4117 C.1     1  UNL1        0.1003
     21 N          63.4473   85.4290   13.1263 N.pl3   1  UNL1       -0.2128
     22 H          64.1426   85.7686   13.7351 H       1  UNL1        0.1738
     23 S          63.0669   83.9784   13.1571 S.O2    1  UNL1        0.0736
     24 O          64.0948   83.6864   12.1045 O.2     1  UNL1       -0.1499
     25 O          62.0390   84.2703   14.2098 O.2     1  UNL1       -0.1499
     26 C          62.6864   82.5277   13.1880 C.ar    1  UNL1        0.1252
     27 C          61.7884   82.0109   14.2726 C.ar    1  UNL1        0.0202
     28 C          61.4079   80.5603   14.3036 C.ar    1  UNL1        0.0014
     29 C          61.9254   79.6265   13.2498 C.ar    1  UNL1        0.0001
     30 C          62.8234   80.1433   12.1652 C.ar    1  UNL1        0.0014
     31 C          63.2039   81.5939   12.1343 C.ar    1  UNL1        0.0202
@<TRIPOS>BOND
     1    19    20    3
     2    20    10    1
     3    10    11    2
     4    11    12    1
     5    12    13    2
     6    13    14    1
     7    14    15    2
     8    15    16    1
     9    16     8    1
    10     8     9    2
    11     8     1    1
    12     1     2   ar
    13     2     3   ar
    14     3     4   ar
    15     4     5   ar
    16     5    21    1
    17    21    23    1
    18    23    24    2
    19    23    25    2
    20    23    26    1
    21    26    27   ar
    22    27    28   ar
    23    28    29   ar
    24    29    30   ar
    25    30    31   ar
    26     5     6   ar
    27     6     7    1
    28    16    17    2
    29    17    18    1
    30    18    10    1
    31    17    13    1
    32     6     1   ar
    33    31    26   ar
    34    21    22    1
