@<TRIPOS>MOLECULE
*****
 33 35 0 0 0
SMALL
GASTEIGER

@<TRIPOS>ATOM
      1 S          63.4055   90.7953   12.2896 S.O2    1  UNL1        0.0736
      2 O          63.6545   91.0175   10.8272 O.2     1  UNL1       -0.1499
      3 O          63.1565   90.5730   13.7520 O.2     1  UNL1       -0.1499
      4 C          64.5727   91.6768   12.6223 C.ar    1  UNL1        0.1251
      5 C          65.2852   91.5152   13.9323 C.ar    1  UNL1        0.0240
      6 C          66.4523   92.3967   14.2649 C.ar    1  UNL1        0.0727
      7 C          66.9070   93.4398   13.2876 C.ar    1  UNL1        0.0078
      8 C          66.1945   93.6014   11.9776 C.ar    1  UNL1        0.0727
      9 C          65.0273   92.7199   11.6449 C.ar    1  UNL1        0.0240
     10 C          67.1649   92.2351   15.5750 C.3     1  UNL1        0.4186
     11 F          67.8773   92.0735   16.8851 F       1  UNL1       -0.1659
     12 F          68.4395   91.9325   14.8445 F       1  UNL1       -0.1659
     13 F          65.8902   92.5377   16.3056 F       1  UNL1       -0.1659
     14 C          66.6491   94.6445   11.0002 C.3     1  UNL1        0.4186
     15 F          67.1037   95.6875   10.0228 F       1  UNL1       -0.1659
     16 F          67.1736   93.5687   10.0961 F       1  UNL1       -0.1659
     17 F          66.1246   95.7203   11.9043 F       1  UNL1       -0.1659
     18 N          62.2383   89.9138   11.9569 N.pl3   1  UNL1       -0.2150
     19 H          61.3527   90.3109   11.7921 H       1  UNL1        0.1737
     20 C          62.7848   85.4538   11.7125 C.ar    1  UNL1        0.0002
     21 C          63.5172   86.2430   12.7568 C.ar    1  UNL1        0.0013
     22 C          63.3351   87.7296   12.8383 C.ar    1  UNL1        0.0159
     23 C          62.4205   88.4271   11.8754 C.ar    1  UNL1        0.0648
     24 C          61.6881   87.6379   10.8311 C.ar    1  UNL1        0.0159
     25 C          61.8703   86.1512   10.7496 C.ar    1  UNL1        0.0013
     26 C          62.6391   81.6008   12.6524 C.ar    1  UNL1        0.0814
     27 C          62.4570   83.0874   12.7338 C.ar    1  UNL1        0.0191
     28 C          62.9670   83.9671   11.6310 C.ar    1  UNL1        0.0030
     29 C          63.6592   83.3600   10.4468 C.ar    1  UNL1        0.0207
     30 C          63.8413   81.8734   10.3654 C.ar    1  UNL1        0.0988
     31 N          63.3313   80.9938   11.4682 N.ar    1  UNL1       -0.2438
     32 C          60.6743   80.7427   14.1196 C.2     1  UNL1        0.0016
     33 C          62.1291   80.7212   13.7552 C.2     1  UNL1        0.0191
@<TRIPOS>BOND
     1    32    33    2
     2    33    26    1
     3    26    27   ar
     4    27    28   ar
     5    28    20    1
     6    20    21   ar
     7    21    22   ar
     8    22    23   ar
     9    23    18    1
    10    18     1    1
    11     1     2    2
    12     1     3    2
    13     1     4    1
    14     4     5   ar
    15     5     6   ar
    16     6    10    1
    17    10    11    1
    18    10    12    1
    19    10    13    1
    20     6     7   ar
    21     7     8   ar
    22     8    14    1
    23    14    15    1
    24    14    16    1
    25    14    17    1
    26     8     9   ar
    27    23    24   ar
    28    24    25   ar
    29    28    29   ar
    30    29    30   ar
    31    30    31   ar
    32    31    26   ar
    33    25    20   ar
    34     9     4   ar
    35    18    19    1
@<TRIPOS>MOLECULE
*****
 33 35 0 0 0
SMALL
GASTEIGER

@<TRIPOS>ATOM
      1 S          63.3746   90.8433   11.8841 S.O2    1  UNL1        0.0736
      2 O          63.1257   90.6507   13.3507 O.2     1  UNL1       -0.1499
      3 O          63.6234   91.0360   10.4175 O.2     1  UNL1       -0.1499
      4 C          64.5375   91.7370   12.1988 C.ar    1  UNL1        0.1251
      5 C          64.9960   92.7527   11.1949 C.ar    1  UNL1        0.0240
      6 C          66.1589   93.6464   11.5096 C.ar    1  UNL1        0.0727
      7 C          66.8632   93.5243   12.8282 C.ar    1  UNL1        0.0078
      8 C          66.4047   92.5086   13.8322 C.ar    1  UNL1        0.0727
      9 C          65.2418   91.6149   13.5175 C.ar    1  UNL1        0.0240
     10 C          66.6174   94.6622   10.5055 C.3     1  UNL1        0.4186
     11 F          67.0759   95.6779    9.5016 F       1  UNL1       -0.1659
     12 F          66.7703   93.5789    9.4794 F       1  UNL1       -0.1659
     13 F          66.4645   95.7455   11.5317 F       1  UNL1       -0.1659
     14 C          67.1091   92.3865   15.1510 C.3     1  UNL1        0.4186
     15 F          67.8134   92.2645   16.4696 F       1  UNL1       -0.1659
     16 F          67.2041   93.8809   15.2385 F       1  UNL1       -0.1659
     17 F          67.0140   90.8921   15.0634 F       1  UNL1       -0.1659
     18 N          62.2117   89.9497   11.5694 N.pl3   1  UNL1       -0.2150
     19 H          61.3318   90.3407   11.3642 H       1  UNL1        0.1737
     20 C          62.7449   85.4814   11.5633 C.ar    1  UNL1        0.0002
     21 C          63.3433   86.3066   12.6637 C.ar    1  UNL1        0.0013
     22 C          63.1656   87.7960   12.6657 C.ar    1  UNL1        0.0159
     23 C          62.3894   88.4603   11.5674 C.ar    1  UNL1        0.0648
     24 C          61.7910   87.6350   10.4670 C.ar    1  UNL1        0.0159
     25 C          61.9688   86.1456   10.4649 C.ar    1  UNL1        0.0013
     26 C          62.6145   81.6876   12.7211 C.ar    1  UNL1        0.0814
     27 C          62.4368   83.1770   12.7231 C.ar    1  UNL1        0.0191
     28 C          62.9227   83.9919   11.5613 C.ar    1  UNL1        0.0030
     29 C          63.5863   83.3174   10.3974 C.ar    1  UNL1        0.0207
     30 C          63.7640   81.8280   10.3954 C.ar    1  UNL1        0.0988
     31 N          63.2781   81.0131   11.5573 N.ar    1  UNL1       -0.2438
     32 C          60.6567   80.7006   14.1150 C.2     1  UNL1        0.0016
     33 C          62.1286   80.8728   13.8830 C.2     1  UNL1        0.0191
@<TRIPOS>BOND
     1    32    33    2
     2    33    26    1
     3    26    27   ar
     4    27    28   ar
     5    28    20    1
     6    20    21   ar
     7    21    22   ar
     8    22    23   ar
     9    23    18    1
    10    18     1    1
    11     1     2    2
    12     1     3    2
    13     1     4    1
    14     4     5   ar
    15     5     6   ar
    16     6    10    1
    17    10    11    1
    18    10    12    1
    19    10    13    1
    20     6     7   ar
    21     7     8   ar
    22     8    14    1
    23    14    15    1
    24    14    16    1
    25    14    17    1
    26     8     9   ar
    27    23    24   ar
    28    24    25   ar
    29    28    29   ar
    30    29    30   ar
    31    30    31   ar
    32    31    26   ar
    33    25    20   ar
    34     9     4   ar
    35    18    19    1
@<TRIPOS>MOLECULE
*****
 33 35 0 0 0
SMALL
GASTEIGER

@<TRIPOS>ATOM
      1 S          62.7754   84.5530   15.3803 S.O2    1  UNL1        0.0736
      2 O          61.3166   84.8674   15.2288 O.2     1  UNL1       -0.1499
      3 O          64.2342   84.2386   15.5319 O.2     1  UNL1       -0.1499
      4 C          62.6369   83.4335   14.3916 C.ar    1  UNL1        0.1251
      5 C          61.7140   82.2871   14.6811 C.ar    1  UNL1        0.0240
      6 C          61.5755   81.1676   13.6924 C.ar    1  UNL1        0.0727
      7 C          62.3598   81.1946   12.4141 C.ar    1  UNL1        0.0078
      8 C          63.2827   82.3411   12.1246 C.ar    1  UNL1        0.0727
      9 C          63.4212   83.4605   13.1133 C.ar    1  UNL1        0.0240
     10 C          60.6526   80.0211   13.9820 C.3     1  UNL1        0.4186
     11 F          59.7296   78.8747   14.2716 F       1  UNL1       -0.1659
     12 F          61.7576   79.0541   13.6759 F       1  UNL1       -0.1659
     13 F          59.5475   80.9880   14.2881 F       1  UNL1       -0.1659
     14 C          64.0671   82.3681   10.8463 C.3     1  UNL1        0.4186
     15 F          64.8515   82.3952    9.5680 F       1  UNL1       -0.1659
     16 F          64.9248   83.4690   11.3959 F       1  UNL1       -0.1659
     17 F          63.2093   81.2672   10.2966 F       1  UNL1       -0.1659
     18 N          62.9139   85.6725   16.3691 N.pl3   1  UNL1       -0.2150
     19 H          62.6594   85.5327   17.3098 H       1  UNL1        0.1737
     20 C          64.4929   89.6698   15.0356 C.ar    1  UNL1        0.0002
     21 C          63.6613   89.5691   16.2798 C.ar    1  UNL1        0.0013
     22 C          63.1349   88.2367   16.7243 C.ar    1  UNL1        0.0159
     23 C          63.4403   87.0049   15.9246 C.ar    1  UNL1        0.0648
     24 C          64.2719   87.1056   14.6803 C.ar    1  UNL1        0.0159
     25 C          64.7982   88.4381   14.2358 C.ar    1  UNL1        0.0013
     26 C          65.4586   92.7317   12.7026 C.ar    1  UNL1        0.0814
     27 C          64.9323   91.3993   13.1472 C.ar    1  UNL1        0.0191
     28 C          65.0192   91.0023   14.5911 C.ar    1  UNL1        0.0030
     29 C          65.6325   91.9377   15.5904 C.ar    1  UNL1        0.0207
     30 C          66.1588   93.2702   15.1459 C.ar    1  UNL1        0.0988
     31 N          66.0718   93.6671   13.7020 N.ar    1  UNL1       -0.2438
     32 C          66.6112   93.1649   10.4149 C.2     1  UNL1        0.0016
     33 C          65.3716   93.1287   11.2587 C.2     1  UNL1        0.0191
@<TRIPOS>BOND
     1    32    33    2
     2    33    26    1
     3    26    27   ar
     4    27    28   ar
     5    28    20    1
     6    20    21   ar
     7    21    22   ar
     8    22    23   ar
     9    23    18    1
    10    18     1    1
    11     1     2    2
    12     1     3    2
    13     1     4    1
    14     4     5   ar
    15     5     6   ar
    16     6    10    1
    17    10    11    1
    18    10    12    1
    19    10    13    1
    20     6     7   ar
    21     7     8   ar
    22     8    14    1
    23    14    15    1
    24    14    16    1
    25    14    17    1
    26     8     9   ar
    27    23    24   ar
    28    24    25   ar
    29    28    29   ar
    30    29    30   ar
    31    30    31   ar
    32    31    26   ar
    33    25    20   ar
    34     9     4   ar
    35    18    19    1
@<TRIPOS>MOLECULE
*****
 33 35 0 0 0
SMALL
GASTEIGER

@<TRIPOS>ATOM
      1 S          62.7752   84.5578   15.3791 S.O2    1  UNL1        0.0736
      2 O          61.3190   84.8772   15.2136 O.2     1  UNL1       -0.1499
      3 O          64.2315   84.2383   15.5446 O.2     1  UNL1       -0.1499
      4 C          62.6419   83.4378   14.3901 C.ar    1  UNL1        0.1251
      5 C          63.4250   83.4695   13.1112 C.ar    1  UNL1        0.0240
      6 C          63.2917   82.3496   12.1222 C.ar    1  UNL1        0.0727
      7 C          62.3754   81.1980   12.4123 C.ar    1  UNL1        0.0078
      8 C          61.5923   81.1663   13.6912 C.ar    1  UNL1        0.0727
      9 C          61.7256   82.2863   14.6802 C.ar    1  UNL1        0.0240
     10 C          64.0748   82.3812   10.8432 C.3     1  UNL1        0.4186
     11 F          64.8578   82.4129    9.5642 F       1  UNL1       -0.1659
     12 F          64.9656   83.4440   11.4149 F       1  UNL1       -0.1659
     13 F          63.1840   81.3185   10.2715 F       1  UNL1       -0.1659
     14 C          60.6759   80.0147   13.9813 C.3     1  UNL1        0.4186
     15 F          59.7596   78.8631   14.2714 F       1  UNL1       -0.1659
     16 F          61.7876   79.0541   13.6793 F       1  UNL1       -0.1659
     17 F          59.5642   80.9754   14.2833 F       1  UNL1       -0.1659
     18 N          62.9085   85.6777   16.3680 N.pl3   1  UNL1       -0.2150
     19 H          62.6483   85.5386   17.3073 H       1  UNL1        0.1737
     20 C          64.4978   89.6733   15.0417 C.ar    1  UNL1        0.0002
     21 C          64.8016   88.4420   14.2408 C.ar    1  UNL1        0.0013
     22 C          64.2718   87.1101   14.6829 C.ar    1  UNL1        0.0159
     23 C          63.4383   87.0095   15.9259 C.ar    1  UNL1        0.0648
     24 C          63.1345   88.2409   16.7269 C.ar    1  UNL1        0.0159
     25 C          63.6643   89.5728   16.2847 C.ar    1  UNL1        0.0013
     26 C          65.4757   92.7348   12.7134 C.ar    1  UNL1        0.0814
     27 C          64.9460   91.4030   13.1556 C.ar    1  UNL1        0.0191
     28 C          65.0276   91.0052   14.5996 C.ar    1  UNL1        0.0030
     29 C          65.6390   91.9393   15.6014 C.ar    1  UNL1        0.0207
     30 C          66.1687   93.2711   15.1592 C.ar    1  UNL1        0.0988
     31 N          66.0871   93.6689   13.7152 N.ar    1  UNL1       -0.2438
     32 C          66.6097   93.0385   10.3957 C.2     1  UNL1        0.0016
     33 C          65.3941   93.1326   11.2694 C.2     1  UNL1        0.0191
@<TRIPOS>BOND
     1    32    33    2
     2    33    26    1
     3    26    27   ar
     4    27    28   ar
     5    28    20    1
     6    20    21   ar
     7    21    22   ar
     8    22    23   ar
     9    23    18    1
    10    18     1    1
    11     1     2    2
    12     1     3    2
    13     1     4    1
    14     4     5   ar
    15     5     6   ar
    16     6    10    1
    17    10    11    1
    18    10    12    1
    19    10    13    1
    20     6     7   ar
    21     7     8   ar
    22     8    14    1
    23    14    15    1
    24    14    16    1
    25    14    17    1
    26     8     9   ar
    27    23    24   ar
    28    24    25   ar
    29    28    29   ar
    30    29    30   ar
    31    30    31   ar
    32    31    26   ar
    33    25    20   ar
    34     9     4   ar
    35    18    19    1
@<TRIPOS>MOLECULE
*****
 33 35 0 0 0
SMALL
GASTEIGER

@<TRIPOS>ATOM
      1 S          62.7455   84.5224   15.3428 S.O2    1  UNL1        0.0736
      2 O          61.2939   84.8575   15.1679 O.2     1  UNL1       -0.1499
      3 O          64.1971   84.1873   15.5177 O.2     1  UNL1       -0.1499
      4 C          62.6009   83.3890   14.3710 C.ar    1  UNL1        0.1251
      5 C          61.6631   82.2578   14.6721 C.ar    1  UNL1        0.0240
      6 C          61.5186   81.1244   13.7003 C.ar    1  UNL1        0.0727
      7 C          62.3118   81.1223   12.4272 C.ar    1  UNL1        0.0078
      8 C          63.2496   82.2535   12.1260 C.ar    1  UNL1        0.0727
      9 C          63.3942   83.3869   13.0979 C.ar    1  UNL1        0.0240
     10 C          60.5807   79.9931   14.0015 C.3     1  UNL1        0.4186
     11 F          59.6429   78.8619   14.3027 F       1  UNL1       -0.1659
     12 F          61.6691   79.0084   13.6920 F       1  UNL1       -0.1659
     13 F          59.4924   80.9778   14.3110 F       1  UNL1       -0.1659
     14 C          64.0430   82.2514   10.8529 C.3     1  UNL1        0.4186
     15 F          64.8362   82.2493    9.5799 F       1  UNL1       -0.1659
     16 F          63.1798   81.1480   10.3169 F       1  UNL1       -0.1659
     17 F          64.9061   83.3548   11.3889 F       1  UNL1       -0.1659
     18 N          62.8900   85.6558   16.3147 N.pl3   1  UNL1       -0.2150
     19 H          62.6210   85.5360   17.2541 H       1  UNL1        0.1737
     20 C          64.5532   89.6035   14.9364 C.ar    1  UNL1        0.0002
     21 C          63.7165   89.5350   16.1795 C.ar    1  UNL1        0.0013
     22 C          63.1621   88.2192   16.6390 C.ar    1  UNL1        0.0159
     23 C          63.4444   86.9717   15.8553 C.ar    1  UNL1        0.0648
     24 C          64.2811   87.0401   14.6122 C.ar    1  UNL1        0.0159
     25 C          64.8355   88.3560   14.1528 C.ar    1  UNL1        0.0013
     26 C          66.6259   92.9875   14.8866 C.ar    1  UNL1        0.0814
     27 C          66.0715   91.6716   15.3460 C.ar    1  UNL1        0.0191
     28 C          65.1076   90.9194   14.4770 C.ar    1  UNL1        0.0030
     29 C          64.6981   91.4831   13.1487 C.ar    1  UNL1        0.0207
     30 C          65.2525   92.7990   12.6894 C.ar    1  UNL1        0.0988
     31 N          66.2164   93.5512   13.5583 N.ar    1  UNL1       -0.2438
     32 C          69.0553   93.4249   15.6971 C.2     1  UNL1        0.0016
     33 C          67.5899   93.7396   15.7556 C.2     1  UNL1        0.0191
@<TRIPOS>BOND
     1    32    33    2
     2    33    26    1
     3    26    27   ar
     4    27    28   ar
     5    28    20    1
     6    20    21   ar
     7    21    22   ar
     8    22    23   ar
     9    23    18    1
    10    18     1    1
    11     1     2    2
    12     1     3    2
    13     1     4    1
    14     4     5   ar
    15     5     6   ar
    16     6    10    1
    17    10    11    1
    18    10    12    1
    19    10    13    1
    20     6     7   ar
    21     7     8   ar
    22     8    14    1
    23    14    15    1
    24    14    16    1
    25    14    17    1
    26     8     9   ar
    27    23    24   ar
    28    24    25   ar
    29    28    29   ar
    30    29    30   ar
    31    30    31   ar
    32    31    26   ar
    33    25    20   ar
    34     9     4   ar
    35    18    19    1
@<TRIPOS>MOLECULE
*****
 33 35 0 0 0
SMALL
GASTEIGER

@<TRIPOS>ATOM
      1 S          62.6177   84.4811   15.4040 S.O2    1  UNL1        0.0736
      2 O          61.1942   84.8660   15.1295 O.2     1  UNL1       -0.1499
      3 O          64.0413   84.0961   15.6784 O.2     1  UNL1       -0.1499
      4 C          62.5038   83.3567   14.4177 C.ar    1  UNL1        0.1251
      5 C          63.3119   83.3825   13.1542 C.ar    1  UNL1        0.0240
      6 C          63.1980   82.2581   12.1680 C.ar    1  UNL1        0.0727
      7 C          62.2761   81.1078   12.4451 C.ar    1  UNL1        0.0078
      8 C          61.4681   81.0820   13.7086 C.ar    1  UNL1        0.0727
      9 C          61.5819   82.2064   14.6949 C.ar    1  UNL1        0.0240
     10 C          64.0061   82.2841   10.9044 C.3     1  UNL1        0.4186
     11 F          64.8142   82.3100    9.6410 F       1  UNL1       -0.1659
     12 F          63.1382   81.2054   10.3272 F       1  UNL1       -0.1659
     13 F          64.8739   83.3627   11.4817 F       1  UNL1       -0.1659
     14 C          60.5461   79.9316   13.9858 C.3     1  UNL1        0.4186
     15 F          59.6242   78.7813   14.2631 F       1  UNL1       -0.1659
     16 F          61.6511   78.9690   13.6661 F       1  UNL1       -0.1659
     17 F          59.4411   80.8943   14.3056 F       1  UNL1       -0.1659
     18 N          62.7316   85.6055   16.3903 N.pl3   1  UNL1       -0.2150
     19 H          62.4117   85.4847   17.3135 H       1  UNL1        0.1737
     20 C          64.5355   89.5305   15.1293 C.ar    1  UNL1        0.0002
     21 C          63.6506   89.4659   16.3388 C.ar    1  UNL1        0.0013
     22 C          63.0493   88.1576   16.7591 C.ar    1  UNL1        0.0159
     23 C          63.3329   86.9138   15.9700 C.ar    1  UNL1        0.0648
     24 C          64.2178   86.9784   14.7605 C.ar    1  UNL1        0.0159
     25 C          64.8191   88.2868   14.3402 C.ar    1  UNL1        0.0013
     26 C          66.7047   92.8532   15.1928 C.ar    1  UNL1        0.0814
     27 C          66.1034   91.5449   15.6131 C.ar    1  UNL1        0.0191
     28 C          65.1368   90.8389   14.7090 C.ar    1  UNL1        0.0030
     29 C          64.7715   91.4413   13.3848 C.ar    1  UNL1        0.0207
     30 C          65.3728   92.7496   12.9646 C.ar    1  UNL1        0.0988
     31 N          66.3394   93.4556   13.8686 N.ar    1  UNL1       -0.2438
     32 C          68.7486   94.4248   15.5135 C.2     1  UNL1        0.0016
     33 C          67.6713   93.5592   16.0968 C.2     1  UNL1        0.0191
@<TRIPOS>BOND
     1    32    33    2
     2    33    26    1
     3    26    27   ar
     4    27    28   ar
     5    28    20    1
     6    20    21   ar
     7    21    22   ar
     8    22    23   ar
     9    23    18    1
    10    18     1    1
    11     1     2    2
    12     1     3    2
    13     1     4    1
    14     4     5   ar
    15     5     6   ar
    16     6    10    1
    17    10    11    1
    18    10    12    1
    19    10    13    1
    20     6     7   ar
    21     7     8   ar
    22     8    14    1
    23    14    15    1
    24    14    16    1
    25    14    17    1
    26     8     9   ar
    27    23    24   ar
    28    24    25   ar
    29    28    29   ar
    30    29    30   ar
    31    30    31   ar
    32    31    26   ar
    33    25    20   ar
    34     9     4   ar
    35    18    19    1
@<TRIPOS>MOLECULE
*****
 33 35 0 0 0
SMALL
GASTEIGER

@<TRIPOS>ATOM
      1 S          61.9440   86.4541   11.1144 S.O2    1  UNL1        0.0736
      2 O          62.7838   86.1104    9.9200 O.2     1  UNL1       -0.1499
      3 O          61.1043   86.7978   12.3088 O.2     1  UNL1       -0.1499
      4 C          62.2906   85.1346   11.7378 C.ar    1  UNL1        0.1251
      5 C          62.3501   85.0030   13.2308 C.ar    1  UNL1        0.0240
      6 C          62.6967   83.6834   13.8542 C.ar    1  UNL1        0.0727
      7 C          62.9838   82.4954   12.9846 C.ar    1  UNL1        0.0078
      8 C          62.9243   82.6270   11.4916 C.ar    1  UNL1        0.0727
      9 C          62.5777   83.9466   10.8682 C.ar    1  UNL1        0.0240
     10 C          62.7562   83.5518   15.3473 C.3     1  UNL1        0.4186
     11 F          62.8156   83.4203   16.8403 F       1  UNL1       -0.1659
     12 F          63.8955   82.5850   15.2168 F       1  UNL1       -0.1659
     13 F          61.6168   84.5186   15.4778 F       1  UNL1       -0.1659
     14 C          63.2115   81.4390   10.6219 C.3     1  UNL1        0.4186
     15 F          63.4985   80.2511    9.7523 F       1  UNL1       -0.1659
     16 F          62.4822   80.5546   11.5893 F       1  UNL1       -0.1659
     17 F          63.9407   82.3235    9.6545 F       1  UNL1       -0.1659
     18 N          61.5974   87.7737   10.4910 N.pl3   1  UNL1       -0.2150
     19 H          60.8181   87.8465    9.8939 H       1  UNL1        0.1737
     20 C          64.1198   91.3999   11.3503 C.ar    1  UNL1        0.0002
     21 C          63.4531   91.2493   10.0150 C.ar    1  UNL1        0.0013
     22 C          62.6123   90.0406    9.7286 C.ar    1  UNL1        0.0159
     23 C          62.4382   88.9824   10.7775 C.ar    1  UNL1        0.0648
     24 C          63.1049   89.1330   12.1127 C.ar    1  UNL1        0.0159
     25 C          63.9457   90.3418   12.3991 C.ar    1  UNL1        0.0013
     26 C          66.0134   94.8528   10.8586 C.ar    1  UNL1        0.0814
     27 C          65.1727   93.6441   10.5722 C.ar    1  UNL1        0.0191
     28 C          64.9606   92.6087   11.6367 C.ar    1  UNL1        0.0030
     29 C          65.5893   92.7820   12.9874 C.ar    1  UNL1        0.0207
     30 C          66.4301   93.9908   13.2738 C.ar    1  UNL1        0.0988
     31 N          66.6421   95.0262   12.2093 N.ar    1  UNL1       -0.2438
     32 C          67.4295   95.8119    8.9029 C.2     1  UNL1        0.0016
     33 C          66.2255   95.8882    9.7941 C.2     1  UNL1        0.0191
@<TRIPOS>BOND
     1    32    33    2
     2    33    26    1
     3    26    27   ar
     4    27    28   ar
     5    28    20    1
     6    20    21   ar
     7    21    22   ar
     8    22    23   ar
     9    23    18    1
    10    18     1    1
    11     1     2    2
    12     1     3    2
    13     1     4    1
    14     4     5   ar
    15     5     6   ar
    16     6    10    1
    17    10    11    1
    18    10    12    1
    19    10    13    1
    20     6     7   ar
    21     7     8   ar
    22     8    14    1
    23    14    15    1
    24    14    16    1
    25    14    17    1
    26     8     9   ar
    27    23    24   ar
    28    24    25   ar
    29    28    29   ar
    30    29    30   ar
    31    30    31   ar
    32    31    26   ar
    33    25    20   ar
    34     9     4   ar
    35    18    19    1
@<TRIPOS>MOLECULE
*****
 33 35 0 0 0
SMALL
GASTEIGER

@<TRIPOS>ATOM
      1 S          61.9769   86.3766   11.0322 S.O2    1  UNL1        0.0736
      2 O          62.9518   86.0831    9.9306 O.2     1  UNL1       -0.1499
      3 O          61.0020   86.6702   12.1337 O.2     1  UNL1       -0.1499
      4 C          62.2977   85.0565   11.6679 C.ar    1  UNL1        0.1251
      5 C          62.3332   84.9326   13.1624 C.ar    1  UNL1        0.0240
      6 C          62.6540   83.6125   13.7982 C.ar    1  UNL1        0.0727
      7 C          62.9394   82.4161   12.9395 C.ar    1  UNL1        0.0078
      8 C          62.9040   82.5400   11.4451 C.ar    1  UNL1        0.0727
      9 C          62.5831   83.8601   10.8093 C.ar    1  UNL1        0.0240
     10 C          62.6894   83.4887   15.2927 C.3     1  UNL1        0.4186
     11 F          62.7248   83.3649   16.7871 F       1  UNL1       -0.1659
     12 F          63.8226   82.5119   15.1850 F       1  UNL1       -0.1659
     13 F          61.5562   84.4655   15.4004 F       1  UNL1       -0.1659
     14 C          63.1894   81.3436   10.5864 C.3     1  UNL1        0.4186
     15 F          63.4748   80.1473    9.7277 F       1  UNL1       -0.1659
     16 F          62.5308   80.4577   11.6018 F       1  UNL1       -0.1659
     17 F          63.8481   82.2296    9.5709 F       1  UNL1       -0.1659
     18 N          61.6560   87.6968   10.3964 N.pl3   1  UNL1       -0.2150
     19 H          60.9061   87.7686    9.7626 H       1  UNL1        0.1737
     20 C          64.1214   91.3290   11.3857 C.ar    1  UNL1        0.0002
     21 C          63.4763   91.2050   10.0372 C.ar    1  UNL1        0.0013
     22 C          62.6545   89.9943    9.7074 C.ar    1  UNL1        0.0159
     23 C          62.4778   88.9075   10.7261 C.ar    1  UNL1        0.0648
     24 C          63.1229   89.0315   12.0746 C.ar    1  UNL1        0.0159
     25 C          63.9448   90.2423   12.4044 C.ar    1  UNL1        0.0013
     26 C          66.4400   93.8579   13.3804 C.ar    1  UNL1        0.0814
     27 C          65.6182   92.6472   13.0507 C.ar    1  UNL1        0.0191
     28 C          64.9433   92.5398   11.7154 C.ar    1  UNL1        0.0030
     29 C          65.0901   93.6432   10.7099 C.ar    1  UNL1        0.0207
     30 C          65.9119   94.8539   11.0397 C.ar    1  UNL1        0.0988
     31 N          66.5868   94.9612   12.3750 N.ar    1  UNL1       -0.2438
     32 C          66.9713   92.8602   15.7197 C.2     1  UNL1        0.0016
     33 C          67.1150   93.9653   14.7157 C.2     1  UNL1        0.0191
@<TRIPOS>BOND
     1    32    33    2
     2    33    26    1
     3    26    27   ar
     4    27    28   ar
     5    28    20    1
     6    20    21   ar
     7    21    22   ar
     8    22    23   ar
     9    23    18    1
    10    18     1    1
    11     1     2    2
    12     1     3    2
    13     1     4    1
    14     4     5   ar
    15     5     6   ar
    16     6    10    1
    17    10    11    1
    18    10    12    1
    19    10    13    1
    20     6     7   ar
    21     7     8   ar
    22     8    14    1
    23    14    15    1
    24    14    16    1
    25    14    17    1
    26     8     9   ar
    27    23    24   ar
    28    24    25   ar
    29    28    29   ar
    30    29    30   ar
    31    30    31   ar
    32    31    26   ar
    33    25    20   ar
    34     9     4   ar
    35    18    19    1
@<TRIPOS>MOLECULE
*****
 33 35 0 0 0
SMALL
GASTEIGER

@<TRIPOS>ATOM
      1 S          61.9634   86.3595   11.0186 S.O2    1  UNL1        0.0736
      2 O          62.8088   86.0073    9.8307 O.2     1  UNL1       -0.1499
      3 O          61.1180   86.7118   12.2065 O.2     1  UNL1       -0.1499
      4 C          62.2746   85.0279   11.6349 C.ar    1  UNL1        0.1251
      5 C          62.5918   83.8520   10.7594 C.ar    1  UNL1        0.0240
      6 C          62.9030   82.5203   11.3757 C.ar    1  UNL1        0.0727
      7 C          62.8969   82.3645   12.8676 C.ar    1  UNL1        0.0078
      8 C          62.5796   83.5404   13.7431 C.ar    1  UNL1        0.0727
      9 C          62.2685   84.8721   13.1268 C.ar    1  UNL1        0.0240
     10 C          63.2203   81.3444   10.5001 C.3     1  UNL1        0.4186
     11 F          63.5376   80.1686    9.6245 F       1  UNL1       -0.1659
     12 F          62.5299   80.4342   11.4721 F       1  UNL1       -0.1659
     13 F          63.9107   82.2545    9.5281 F       1  UNL1       -0.1659
     14 C          62.5735   83.3847   15.2350 C.3     1  UNL1        0.4186
     15 F          62.5674   83.2290   16.7269 F       1  UNL1       -0.1659
     16 F          63.0139   84.8106   15.3856 F       1  UNL1       -0.1659
     17 F          62.1331   81.9587   15.0844 F       1  UNL1       -0.1659
     18 N          61.6522   87.6912   10.4023 N.pl3   1  UNL1       -0.2150
     19 H          60.9034   87.7776    9.7690 H       1  UNL1        0.1737
     20 C          64.1414   91.2913   11.4479 C.ar    1  UNL1        0.0002
     21 C          63.4854   91.1982   10.1022 C.ar    1  UNL1        0.0013
     22 C          62.6557   89.9982    9.7536 C.ar    1  UNL1        0.0159
     23 C          62.4819   88.8912   10.7508 C.ar    1  UNL1        0.0648
     24 C          63.1379   88.9842   12.0966 C.ar    1  UNL1        0.0159
     25 C          63.9677   90.1843   12.4451 C.ar    1  UNL1        0.0013
     26 C          66.4740   93.7748   13.4829 C.ar    1  UNL1        0.0814
     27 C          65.6443   92.5748   13.1343 C.ar    1  UNL1        0.0191
     28 C          64.9711   92.4914   11.7964 C.ar    1  UNL1        0.0030
     29 C          65.1277   93.6079   10.8071 C.ar    1  UNL1        0.0207
     30 C          65.9574   94.8079   11.1557 C.ar    1  UNL1        0.0988
     31 N          66.6305   94.8914   12.4935 N.ar    1  UNL1       -0.2438
     32 C          66.9696   92.7537   15.8199 C.2     1  UNL1        0.0016
     33 C          67.1471   93.8583   14.8207 C.2     1  UNL1        0.0191
@<TRIPOS>BOND
     1    32    33    2
     2    33    26    1
     3    26    27   ar
     4    27    28   ar
     5    28    20    1
     6    20    21   ar
     7    21    22   ar
     8    22    23   ar
     9    23    18    1
    10    18     1    1
    11     1     2    2
    12     1     3    2
    13     1     4    1
    14     4     5   ar
    15     5     6   ar
    16     6    10    1
    17    10    11    1
    18    10    12    1
    19    10    13    1
    20     6     7   ar
    21     7     8   ar
    22     8    14    1
    23    14    15    1
    24    14    16    1
    25    14    17    1
    26     8     9   ar
    27    23    24   ar
    28    24    25   ar
    29    28    29   ar
    30    29    30   ar
    31    30    31   ar
    32    31    26   ar
    33    25    20   ar
    34     9     4   ar
    35    18    19    1
