@<TRIPOS>MOLECULE
*****
 39 43 0 0 0
SMALL
GASTEIGER

@<TRIPOS>ATOM
      1 C          64.1698   90.2374   13.0299 C.ar    1  UNL1       -0.0183
      2 C          63.0265   90.3631   12.0671 C.ar    1  UNL1       -0.0043
      3 C          62.2975   89.1367   11.6042 C.ar    1  UNL1       -0.0048
      4 C          62.7118   87.7845   12.1040 C.ar    1  UNL1       -0.0228
      5 C          63.8551   87.6587   13.0668 C.ar    1  UNL1       -0.0065
      6 C          64.5841   88.8852   13.5297 C.ar    1  UNL1       -0.0069
      7 C          64.2694   86.3065   13.5667 C.3     1  UNL1        0.1201
      8 N          63.5404   85.0801   13.1038 N.am    1  UNL1       -0.2717
      9 C          63.9548   83.7278   13.6036 C.2     1  UNL1        0.2486
     10 O          65.0981   83.6021   14.5664 O.2     1  UNL1       -0.2699
     11 C          62.3971   85.2058   12.1409 C.3     1  UNL1        0.0987
     12 C          61.9827   86.5580   11.6411 C.3     1  UNL1        0.0476
     13 C          63.2257   82.5013   13.1407 C.ar    1  UNL1        0.0451
     14 C          63.5924   81.8586   11.8360 C.ar    1  UNL1       -0.0217
     15 C          64.6882   82.4422   10.9942 C.3     1  UNL1        0.0308
     16 C          62.8634   80.6321   11.3730 C.ar    1  UNL1       -0.0260
     17 C          63.2301   79.9893   10.0683 C.3     1  UNL1        0.0307
     18 C          61.7676   80.0484   12.2148 C.ar    1  UNL1       -0.0091
     19 C          61.4009   80.6913   13.5196 C.ar    1  UNL1       -0.0260
     20 C          60.3051   80.1076   14.3614 C.3     1  UNL1        0.0307
     21 C          62.1299   81.9177   13.9825 C.ar    1  UNL1       -0.0217
     22 C          61.7632   82.5606   15.2872 C.3     1  UNL1        0.0308
     23 C          64.8988   91.4639   13.4928 C.3     1  UNL1        0.0498
     24 N          66.3199   95.9761    9.8425 N.ar    1  UNL1       -0.2318
     25 N          67.0353   96.8558   10.8246 N.ar    1  UNL1       -0.0639
     26 N          67.0205   96.1693   12.1582 N.ar    1  UNL1       -0.1291
     27 C          66.2960   94.8654   12.0003 C.ar    1  UNL1        0.1174
     28 C          65.9746   93.7713   12.9749 C.ar    1  UNL1       -0.0046
     29 C          66.4076   93.8907   14.4061 C.3     1  UNL1        0.0324
     30 C          65.2202   92.5579   12.5183 C.ar    1  UNL1       -0.0204
     31 C          64.7872   92.4386   11.0870 C.ar    1  UNL1       -0.0026
     32 C          65.1086   93.5326   10.1125 C.ar    1  UNL1        0.0200
     33 C          65.8630   94.7461   10.5692 C.ar    1  UNL1        0.0985
     34 C          67.2234   96.8178    7.5566 C.3     1  UNL1        0.0285
     35 C          66.1000   96.2743    8.3890 C.3     1  UNL1        0.1292
     36 C          65.3064   91.5963   14.9303 C.3     1  UNL1        0.0504
     37 C          64.2627   91.6118   16.0074 C.2     1  UNL1        0.0510
     38 O          63.2505   90.5075   16.0870 O.co2   1  UNL1       -0.5491
     39 O          64.2310   92.7314   17.0051 O.co2   1  UNL1       -0.5491
@<TRIPOS>UNITY_ATOM_ATTR
38 1
charge -1
@<TRIPOS>BOND
     1    34    35    1
     2    35    24    1
     3    24    25   ar
     4    25    26   ar
     5    26    27   ar
     6    27    28   ar
     7    28    29    1
     8    28    30   ar
     9    30    23    1
    10    23    36    1
    11    36    37    1
    12    37    38   ar
    13    37    39   ar
    14    23     1    1
    15     1     2   ar
    16     2     3   ar
    17     3     4   ar
    18     4     5   ar
    19     5     6   ar
    20     5     7    1
    21     7     8    1
    22     8     9   am
    23     9    10    2
    24     9    13    1
    25    13    14   ar
    26    14    15    1
    27    14    16   ar
    28    16    17    1
    29    16    18   ar
    30    18    19   ar
    31    19    20    1
    32    19    21   ar
    33    21    22    1
    34     8    11    1
    35    11    12    1
    36    30    31   ar
    37    31    32   ar
    38    32    33   ar
    39    33    24   ar
    40    33    27   ar
    41     6     1   ar
    42    21    13   ar
    43    12     4    1
@<TRIPOS>MOLECULE
*****
 39 43 0 0 0
SMALL
GASTEIGER

@<TRIPOS>ATOM
      1 C          64.2245   90.7779   12.7362 C.ar    1  UNL1       -0.0183
      2 C          63.1337   90.8510   11.7091 C.ar    1  UNL1       -0.0043
      3 C          62.4278   89.6010   11.2746 C.ar    1  UNL1       -0.0048
      4 C          62.8126   88.2778   11.8671 C.ar    1  UNL1       -0.0228
      5 C          63.9033   88.2046   12.8941 C.ar    1  UNL1       -0.0065
      6 C          64.6093   89.4547   13.3287 C.ar    1  UNL1       -0.0069
      7 C          64.2881   86.8814   13.4866 C.3     1  UNL1        0.1201
      8 N          63.5821   85.6313   13.0521 N.am    1  UNL1       -0.2717
      9 C          63.9669   84.3081   13.6446 C.2     1  UNL1        0.2486
     10 O          65.0576   84.2350   14.6716 O.2     1  UNL1       -0.2699
     11 C          62.4913   85.7044   12.0250 C.3     1  UNL1        0.0987
     12 C          62.1065   87.0276   11.4325 C.3     1  UNL1        0.0476
     13 C          63.2608   83.0580   13.2099 C.ar    1  UNL1        0.0451
     14 C          62.1895   82.4625   14.0746 C.ar    1  UNL1       -0.0217
     15 C          61.8242   83.1171   15.3738 C.3     1  UNL1        0.0308
     16 C          61.4835   81.2124   13.6399 C.ar    1  UNL1       -0.0260
     17 C          60.4122   80.6169   14.5046 C.3     1  UNL1        0.0307
     18 C          61.8489   80.5578   12.3407 C.ar    1  UNL1       -0.0091
     19 C          62.9202   81.1534   11.4761 C.ar    1  UNL1       -0.0260
     20 C          63.2856   80.4988   10.1768 C.3     1  UNL1        0.0307
     21 C          63.6262   82.4034   11.9107 C.ar    1  UNL1       -0.0217
     22 C          64.6976   82.9990   11.0460 C.3     1  UNL1        0.0308
     23 C          64.9305   92.0280   13.1708 C.3     1  UNL1        0.0498
     24 N          67.5939   95.4713    9.0775 N.ar    1  UNL1       -0.2318
     25 N          68.8425   94.6663    8.8706 N.ar    1  UNL1       -0.0639
     26 N          68.7725   93.4641    9.7649 N.ar    1  UNL1       -0.1291
     27 C          67.4806   93.5261   10.5246 C.ar    1  UNL1        0.1174
     28 C          66.8734   92.6132   11.5483 C.ar    1  UNL1       -0.0046
     29 C          67.6019   91.3727   11.9731 C.3     1  UNL1        0.0324
     30 C          65.5377   92.9409   12.1471 C.ar    1  UNL1       -0.0204
     31 C          64.8093   94.1814   11.7223 C.ar    1  UNL1       -0.0026
     32 C          65.4165   95.0943   10.6986 C.ar    1  UNL1        0.0200
     33 C          66.7522   94.7666   10.0997 C.ar    1  UNL1        0.0985
     34 C          66.0897   96.8052    7.4319 C.3     1  UNL1        0.0285
     35 C          67.2477   96.7555    8.3840 C.3     1  UNL1        0.1292
     36 C          65.0293   92.3652   14.6290 C.3     1  UNL1        0.0504
     37 C          66.3348   92.2030   15.3496 C.2     1  UNL1        0.0510
     38 O          66.6905   93.1288   16.4750 O.co2   1  UNL1       -0.5491
     39 O          67.2847   91.1149   14.9449 O.co2   1  UNL1       -0.5491
@<TRIPOS>UNITY_ATOM_ATTR
38 1
charge -1
@<TRIPOS>BOND
     1    34    35    1
     2    35    24    1
     3    24    25   ar
     4    25    26   ar
     5    26    27   ar
     6    27    28   ar
     7    28    29    1
     8    28    30   ar
     9    30    23    1
    10    23    36    1
    11    36    37    1
    12    37    38   ar
    13    37    39   ar
    14    23     1    1
    15     1     2   ar
    16     2     3   ar
    17     3     4   ar
    18     4     5   ar
    19     5     6   ar
    20     5     7    1
    21     7     8    1
    22     8     9   am
    23     9    10    2
    24     9    13    1
    25    13    14   ar
    26    14    15    1
    27    14    16   ar
    28    16    17    1
    29    16    18   ar
    30    18    19   ar
    31    19    20    1
    32    19    21   ar
    33    21    22    1
    34     8    11    1
    35    11    12    1
    36    30    31   ar
    37    31    32   ar
    38    32    33   ar
    39    33    24   ar
    40    33    27   ar
    41     6     1   ar
    42    21    13   ar
    43    12     4    1
@<TRIPOS>MOLECULE
*****
 39 43 0 0 0
SMALL
GASTEIGER

@<TRIPOS>ATOM
      1 C          59.7408   89.7655    7.0096 C.ar    1  UNL1       -0.0183
      2 C          58.3676   90.3049    6.7390 C.ar    1  UNL1       -0.0043
      3 C          58.1280   91.1819    5.5459 C.ar    1  UNL1       -0.0048
      4 C          59.2617   91.5196    4.6236 C.ar    1  UNL1       -0.0228
      5 C          60.6349   90.9803    4.8942 C.ar    1  UNL1       -0.0065
      6 C          60.8745   90.1032    6.0872 C.ar    1  UNL1       -0.0069
      7 C          61.7685   91.3180    3.9718 C.3     1  UNL1        0.1201
      8 N          61.5290   92.1950    2.7788 N.am    1  UNL1       -0.2717
      9 C          62.6626   92.5327    1.8564 C.2     1  UNL1        0.2486
     10 O          64.0358   91.9934    2.1271 O.2     1  UNL1       -0.2699
     11 C          60.1557   92.7344    2.5081 C.3     1  UNL1        0.0987
     12 C          59.0220   92.3967    3.4305 C.3     1  UNL1        0.0476
     13 C          62.4230   93.4098    0.6634 C.ar    1  UNL1        0.0451
     14 C          61.4234   93.0026   -0.3783 C.ar    1  UNL1       -0.0217
     15 C          60.6635   91.7182   -0.2269 C.3     1  UNL1        0.0308
     16 C          61.1838   93.8797   -1.5713 C.ar    1  UNL1       -0.0260
     17 C          60.1843   93.4724   -2.6129 C.3     1  UNL1        0.0307
     18 C          61.9438   95.1640   -1.7227 C.ar    1  UNL1       -0.0091
     19 C          62.9433   95.5713   -0.6810 C.ar    1  UNL1       -0.0260
     20 C          63.7033   96.8556   -0.8324 C.3     1  UNL1        0.0307
     21 C          63.1829   94.6942    0.5120 C.ar    1  UNL1       -0.0217
     22 C          64.1825   95.1014    1.5537 C.3     1  UNL1        0.0308
     23 C          59.9805   88.8884    8.2027 C.3     1  UNL1        0.0498
     24 N          63.2635   90.6746   12.8648 N.ar    1  UNL1       -0.2318
     25 N          62.4060   90.1406   13.9737 N.ar    1  UNL1       -0.0639
     26 N          61.2185   89.4635   13.3563 N.ar    1  UNL1       -0.1291
     27 C          61.3420   89.5790   11.8659 C.ar    1  UNL1        0.1174
     28 C          60.4669   89.0993   10.7461 C.ar    1  UNL1       -0.0046
     29 C          59.2029   88.3507   11.0498 C.3     1  UNL1        0.0324
     30 C          60.8556   89.3681    9.3225 C.ar    1  UNL1       -0.0204
     31 C          62.1195   90.1167    9.0187 C.ar    1  UNL1       -0.0026
     32 C          62.9946   90.5964   10.1385 C.ar    1  UNL1        0.0200
     33 C          62.6059   90.3275   11.5622 C.ar    1  UNL1        0.0985
     34 C          65.5235   91.0199   14.0990 C.3     1  UNL1        0.0285
     35 C          64.5523   91.4242   13.0297 C.3     1  UNL1        0.1292
     36 C          59.3450   87.5317    8.2759 C.3     1  UNL1        0.0504
     37 C          60.1944   86.2993    8.1777 C.2     1  UNL1        0.0510
     38 O          61.2008   85.9949    9.2477 O.co2   1  UNL1       -0.5491
     39 O          60.0376   85.3713    7.0098 O.co2   1  UNL1       -0.5491
@<TRIPOS>UNITY_ATOM_ATTR
38 1
charge -1
@<TRIPOS>BOND
     1    34    35    1
     2    35    24    1
     3    24    25   ar
     4    25    26   ar
     5    26    27   ar
     6    27    28   ar
     7    28    29    1
     8    28    30   ar
     9    30    23    1
    10    23    36    1
    11    36    37    1
    12    37    38   ar
    13    37    39   ar
    14    23     1    1
    15     1     2   ar
    16     2     3   ar
    17     3     4   ar
    18     4     5   ar
    19     5     6   ar
    20     5     7    1
    21     7     8    1
    22     8     9   am
    23     9    10    2
    24     9    13    1
    25    13    14   ar
    26    14    15    1
    27    14    16   ar
    28    16    17    1
    29    16    18   ar
    30    18    19   ar
    31    19    20    1
    32    19    21   ar
    33    21    22    1
    34     8    11    1
    35    11    12    1
    36    30    31   ar
    37    31    32   ar
    38    32    33   ar
    39    33    24   ar
    40    33    27   ar
    41     6     1   ar
    42    21    13   ar
    43    12     4    1
@<TRIPOS>MOLECULE
*****
 39 43 0 0 0
SMALL
GASTEIGER

@<TRIPOS>ATOM
      1 C          59.7681   89.7701    7.0227 C.ar    1  UNL1       -0.0183
      2 C          58.3878   90.2952    6.7601 C.ar    1  UNL1       -0.0043
      3 C          58.1306   91.1634    5.5643 C.ar    1  UNL1       -0.0048
      4 C          59.2537   91.5065    4.6311 C.ar    1  UNL1       -0.0228
      5 C          60.6340   90.9814    4.8936 C.ar    1  UNL1       -0.0065
      6 C          60.8912   90.1132    6.0894 C.ar    1  UNL1       -0.0069
      7 C          61.7571   91.3246    3.9603 C.3     1  UNL1        0.1201
      8 N          61.4998   92.1928    2.7645 N.am    1  UNL1       -0.2717
      9 C          62.6229   92.5359    1.8313 C.2     1  UNL1        0.2486
     10 O          64.0032   92.0108    2.0938 O.2     1  UNL1       -0.2699
     11 C          60.1194   92.7179    2.5019 C.3     1  UNL1        0.0987
     12 C          58.9964   92.3748    3.4352 C.3     1  UNL1        0.0476
     13 C          62.3656   93.4042    0.6354 C.ar    1  UNL1        0.0451
     14 C          63.1122   94.6947    0.4710 C.ar    1  UNL1       -0.0217
     15 C          64.1161   95.1170    1.5024 C.3     1  UNL1        0.0308
     16 C          62.8549   95.5630   -0.7248 C.ar    1  UNL1       -0.0260
     17 C          63.6015   96.8535   -0.8892 C.3     1  UNL1        0.0307
     18 C          61.8510   95.1406   -1.7562 C.ar    1  UNL1       -0.0091
     19 C          61.1044   93.8500   -1.5918 C.ar    1  UNL1       -0.0260
     20 C          60.1004   93.4277   -2.6232 C.3     1  UNL1        0.0307
     21 C          61.3617   92.9818   -0.3960 C.ar    1  UNL1       -0.0217
     22 C          60.6151   91.6912   -0.2315 C.3     1  UNL1        0.0308
     23 C          60.0254   88.9018    8.2185 C.3     1  UNL1        0.0498
     24 N          63.3248   90.7355   12.8506 N.ar    1  UNL1       -0.2318
     25 N          62.5235   90.1286   13.9640 N.ar    1  UNL1       -0.0639
     26 N          61.3578   89.4066   13.3560 N.ar    1  UNL1       -0.1291
     27 C          61.4386   89.5671   11.8668 C.ar    1  UNL1        0.1174
     28 C          60.5624   89.0716   10.7548 C.ar    1  UNL1       -0.0046
     29 C          59.3466   88.2503   11.0672 C.3     1  UNL1        0.0324
     30 C          60.9017   89.3974    9.3305 C.ar    1  UNL1       -0.0204
     31 C          62.1175   90.2187    9.0182 C.ar    1  UNL1       -0.0026
     32 C          62.9937   90.7142   10.1302 C.ar    1  UNL1        0.0200
     33 C          62.6543   90.3884   11.5545 C.ar    1  UNL1        0.0985
     34 C          65.5450   91.2284   14.1066 C.3     1  UNL1        0.0285
     35 C          64.5768   91.5469   13.0061 C.3     1  UNL1        0.1292
     36 C          59.4065   87.5381    8.3023 C.3     1  UNL1        0.0504
     37 C          60.2610   86.3155    8.1440 C.2     1  UNL1        0.0510
     38 O          61.4102   86.0776    9.0783 O.co2   1  UNL1       -0.5491
     39 O          59.9665   85.3310    7.0513 O.co2   1  UNL1       -0.5491
@<TRIPOS>UNITY_ATOM_ATTR
38 1
charge -1
@<TRIPOS>BOND
     1    34    35    1
     2    35    24    1
     3    24    25   ar
     4    25    26   ar
     5    26    27   ar
     6    27    28   ar
     7    28    29    1
     8    28    30   ar
     9    30    23    1
    10    23    36    1
    11    36    37    1
    12    37    38   ar
    13    37    39   ar
    14    23     1    1
    15     1     2   ar
    16     2     3   ar
    17     3     4   ar
    18     4     5   ar
    19     5     6   ar
    20     5     7    1
    21     7     8    1
    22     8     9   am
    23     9    10    2
    24     9    13    1
    25    13    14   ar
    26    14    15    1
    27    14    16   ar
    28    16    17    1
    29    16    18   ar
    30    18    19   ar
    31    19    20    1
    32    19    21   ar
    33    21    22    1
    34     8    11    1
    35    11    12    1
    36    30    31   ar
    37    31    32   ar
    38    32    33   ar
    39    33    24   ar
    40    33    27   ar
    41     6     1   ar
    42    21    13   ar
    43    12     4    1
