@<TRIPOS>MOLECULE
*****
 43 46 0 0 0
SMALL
GASTEIGER

@<TRIPOS>ATOM
      1 N          61.6373   89.2209   10.4546 N.pl3   1  UNL1       -0.3043
      2 C          61.1332   89.4675   11.8457 C.3     1  UNL1        0.1123
      3 C          62.0049   90.1667   12.8463 C.3     1  UNL1        0.1149
      4 N          63.3807   90.6194   12.4559 N.am    1  UNL1       -0.2747
      5 C          64.2523   91.3186   13.4565 C.2     1  UNL1        0.2442
      6 O          63.7482   91.5651   14.8476 O.2     1  UNL1       -0.2731
      7 C          63.8847   90.3728   11.0648 C.3     1  UNL1        0.1149
      8 C          63.0130   89.6736   10.0642 C.3     1  UNL1        0.1123
      9 C          60.8352   87.0302    9.3112 C.ar    1  UNL1        0.0053
     10 C          59.9636   86.3310    8.3106 C.ar    1  UNL1       -0.0018
     11 C          59.0222   87.1234    7.4527 C.ar    1  UNL1       -0.0002
     12 C          58.9526   88.6149    7.5954 C.ar    1  UNL1        0.0012
     13 C          59.8243   89.3141    8.5960 C.ar    1  UNL1        0.0142
     14 C          60.7656   88.5217    9.4539 C.ar    1  UNL1        0.0451
     15 C          61.7766   86.2378   10.1691 C.3     1  UNL1        0.0780
     16 N          61.3653   85.8263   11.5517 N.3     1  UNL1       -0.2950
     17 H          60.6740   85.0839   11.4445 H       1  UNL1        0.1235
     18 C          62.3933   85.3240   12.5217 C.3     1  UNL1        0.0702
     19 C          62.6303   83.8500   12.6671 C.3     1  UNL1        0.0339
     20 C          63.2776   83.3133   13.9093 C.3     1  UNL1        0.0666
     21 N          62.4535   82.5869   14.9306 N.3     1  UNL1       -0.3211
     22 H          61.7863   83.2334   15.3515 H       1  UNL1        0.1189
     23 H          63.0648   82.2097   15.6548 H       1  UNL1        0.1189
     24 C          63.1292   85.8569    9.6445 C.3     1  UNL1        0.0203
     25 C          63.8984   83.3812    9.4735 C.3     1  UNL1        0.0001
     26 C          63.2958   84.6009    8.8416 C.3     1  UNL1        0.0017
     27 C          62.8599   84.5646    7.4068 C.3     1  UNL1        0.0001
     28 C          65.6280   91.7712   13.0661 C.3     1  UNL1        0.1564
     29 N          66.5873   92.2471   14.1165 N.am    1  UNL1       -0.2727
     30 C          66.2183   92.8578   15.4359 C.3     1  UNL1        0.0943
     31 C          67.4869   93.1841   16.1668 C.3     1  UNL1        0.0311
     32 C          68.6400   92.7750   15.2990 C.3     1  UNL1        0.0870
     33 C          68.0841   92.1959   14.0319 C.2     1  UNL1        0.2260
     34 O          68.8843   91.6598   12.8821 O.2     1  UNL1       -0.2749
     35 C          66.0445   91.7479   11.6252 C.3     1  UNL1        0.0564
     36 C          66.4186   93.0244   10.9320 C.ar    1  UNL1       -0.0094
     37 C          65.7520   94.3113   11.3190 C.ar    1  UNL1       -0.0025
     38 C          66.1260   95.5878   10.6257 C.ar    1  UNL1        0.0111
     39 C          67.1667   95.5774    9.5454 C.ar    1  UNL1        0.0585
     40 CL         67.5408   96.8539    8.8522 Cl      1  UNL1       -0.0822
     41 C          67.8333   94.2906    9.1585 C.ar    1  UNL1        0.0225
     42 C          67.4592   93.0141    9.8517 C.ar    1  UNL1        0.0546
     43 CL         68.1258   91.7273    9.4648 Cl      1  UNL1       -0.0825
@<TRIPOS>BOND
     1    25    26    1
     2    26    27    1
     3    26    24    1
     4    15    24    1
     5    15    16    1
     6    16    18    1
     7    18    19    1
     8    19    20    1
     9    20    21    1
    10    15     9    1
    11     9    10   ar
    12    10    11   ar
    13    11    12   ar
    14    12    13   ar
    15    13    14   ar
    16    14     1    1
    17     1     2    1
    18     2     3    1
    19     3     4    1
    20     4     5   am
    21     5     6    2
    22     5    28    1
    23    28    35    1
    24    35    36    1
    25    36    37   ar
    26    37    38   ar
    27    38    39   ar
    28    39    40    1
    29    39    41   ar
    30    41    42   ar
    31    42    43    1
    32    28    29    1
    33    29    30    1
    34    30    31    1
    35    31    32    1
    36    32    33    1
    37    33    34    2
    38     4     7    1
    39     7     8    1
    40    14     9   ar
    41     8     1    1
    42    42    36   ar
    43    33    29   am
    44    16    17    1
    45    21    22    1
    46    21    23    1
@<TRIPOS>MOLECULE
*****
 43 46 0 0 0
SMALL
GASTEIGER

@<TRIPOS>ATOM
      1 N          64.3306   91.0978   12.8486 N.pl3   1  UNL1       -0.3043
      2 C          63.4431   91.7771   11.8482 C.3     1  UNL1        0.1123
      3 C          62.5593   90.9601   10.9530 C.3     1  UNL1        0.1149
      4 N          62.5630   89.4637   11.0583 N.am    1  UNL1       -0.2747
      5 C          61.6792   88.6467   10.1631 C.2     1  UNL1        0.2442
      6 O          60.7916   89.3260    9.1627 O.2     1  UNL1       -0.2731
      7 C          63.4506   88.7845   12.0587 C.3     1  UNL1        0.1149
      8 C          64.3344   89.6016   12.9539 C.3     1  UNL1        0.1123
      9 C          66.0555   93.0146   13.1665 C.ar    1  UNL1        0.0053
     10 C          66.9392   93.8316   14.0616 C.ar    1  UNL1       -0.0018
     11 C          66.9820   93.5490   15.5342 C.ar    1  UNL1       -0.0002
     12 C          66.1409   92.4493   16.1115 C.ar    1  UNL1        0.0012
     13 C          65.2572   91.6323   15.2163 C.ar    1  UNL1        0.0142
     14 C          65.2144   91.9149   13.7438 C.ar    1  UNL1        0.0451
     15 C          66.0128   93.2972   11.6939 C.3     1  UNL1        0.0780
     16 N          65.4017   94.5719   11.1923 N.3     1  UNL1       -0.2950
     17 H          64.4736   94.6379   11.6102 H       1  UNL1        0.1235
     18 C          66.0855   95.8825   11.4470 C.3     1  UNL1        0.0702
     19 C          66.8011   96.5844   10.3311 C.3     1  UNL1        0.0339
     20 C          67.4047   95.7905    9.2107 C.3     1  UNL1        0.0666
     21 N          66.5177   95.0625    8.2446 N.3     1  UNL1       -0.3211
     22 H          66.0215   94.3175    8.7337 H       1  UNL1        0.1189
     23 H          67.0853   94.6603    7.4987 H       1  UNL1        0.1189
     24 C          66.5811   92.3051   10.7230 C.3     1  UNL1        0.0203
     25 C          68.7825   91.5068   11.8485 C.3     1  UNL1        0.0001
     26 C          68.0627   92.0785   10.6631 C.3     1  UNL1        0.0017
     27 C          68.8245   92.4237    9.4179 C.3     1  UNL1        0.0001
     28 C          61.6830   87.1504   10.2684 C.3     1  UNL1        0.1564
     29 N          61.7683   86.3115    9.0279 N.am    1  UNL1       -0.2727
     30 C          62.9965   85.6209    8.5133 C.3     1  UNL1        0.0943
     31 C          62.6278   84.8985    7.2515 C.3     1  UNL1        0.0311
     32 C          61.1717   85.1425    6.9862 C.3     1  UNL1        0.0870
     33 C          60.6405   86.0158    8.0841 C.2     1  UNL1        0.2260
     34 O          59.2294   86.5072    8.2151 O.2     1  UNL1       -0.2749
     35 C          61.6014   86.4930   11.6142 C.3     1  UNL1        0.0564
     36 C          62.3747   85.2362   11.8831 C.ar    1  UNL1       -0.0094
     37 C          62.1472   84.0198   11.0353 C.ar    1  UNL1       -0.0025
     38 C          62.9205   82.7629   11.3042 C.ar    1  UNL1        0.0111
     39 C          63.9214   82.7225   12.4208 C.ar    1  UNL1        0.0585
     40 CL         64.6947   81.4657   12.6897 Cl      1  UNL1       -0.0822
     41 C          64.1488   83.9389   13.2685 C.ar    1  UNL1        0.0225
     42 C          63.3755   85.1957   12.9997 C.ar    1  UNL1        0.0546
     43 CL         63.6029   86.4121   13.8473 Cl      1  UNL1       -0.0825
@<TRIPOS>BOND
     1    25    26    1
     2    26    27    1
     3    26    24    1
     4    15    24    1
     5    15    16    1
     6    16    18    1
     7    18    19    1
     8    19    20    1
     9    20    21    1
    10    15     9    1
    11     9    10   ar
    12    10    11   ar
    13    11    12   ar
    14    12    13   ar
    15    13    14   ar
    16    14     1    1
    17     1     2    1
    18     2     3    1
    19     3     4    1
    20     4     5   am
    21     5     6    2
    22     5    28    1
    23    28    35    1
    24    35    36    1
    25    36    37   ar
    26    37    38   ar
    27    38    39   ar
    28    39    40    1
    29    39    41   ar
    30    41    42   ar
    31    42    43    1
    32    28    29    1
    33    29    30    1
    34    30    31    1
    35    31    32    1
    36    32    33    1
    37    33    34    2
    38     4     7    1
    39     7     8    1
    40    14     9   ar
    41     8     1    1
    42    42    36   ar
    43    33    29   am
    44    16    17    1
    45    21    22    1
    46    21    23    1
@<TRIPOS>MOLECULE
*****
 43 46 0 0 0
SMALL
GASTEIGER

@<TRIPOS>ATOM
      1 N          61.7217   89.4047   10.0123 N.pl3   1  UNL1       -0.3043
      2 C          62.5157   90.5197    9.3988 C.3     1  UNL1        0.1123
      3 C          63.4737   91.3095   10.2403 C.3     1  UNL1        0.1149
      4 N          63.6377   90.9845   11.6955 N.am    1  UNL1       -0.2747
      5 C          64.5957   91.7744   12.5371 C.2     1  UNL1        0.2442
      6 O          65.3897   92.8894   11.9236 O.2     1  UNL1       -0.2731
      7 C          62.8438   89.8695   12.3091 C.3     1  UNL1        0.1149
      8 C          61.8858   89.0796   11.4674 C.3     1  UNL1        0.1123
      9 C          60.8169   87.1158    9.1803 C.ar    1  UNL1        0.0053
     10 C          59.8589   86.3259    8.3386 C.ar    1  UNL1       -0.0018
     11 C          58.8477   87.0351    7.4874 C.ar    1  UNL1       -0.0002
     12 C          58.7945   88.5341    7.4778 C.ar    1  UNL1        0.0012
     13 C          59.7525   89.3239    8.3195 C.ar    1  UNL1        0.0142
     14 C          60.7637   88.6147    9.1707 C.ar    1  UNL1        0.0451
     15 C          61.8281   86.4066   10.0315 C.3     1  UNL1        0.0780
     16 N          61.5062   86.0737   11.4582 N.3     1  UNL1       -0.2950
     17 H          60.7323   85.4096   11.4382 H       1  UNL1        0.1235
     18 C          62.5606   85.4833   12.3468 C.3     1  UNL1        0.0702
     19 C          62.3518   84.1315   12.9625 C.3     1  UNL1        0.0339
     20 C          63.4964   83.1669   13.0601 C.3     1  UNL1        0.0666
     21 N          64.9080   83.6675   12.9785 N.3     1  UNL1       -0.3211
     22 H          65.0817   84.0446   12.0468 H       1  UNL1        0.1189
     23 H          65.5526   82.8980   13.1593 H       1  UNL1        0.1189
     24 C          63.1612   86.0303    9.4560 C.3     1  UNL1        0.0203
     25 C          63.9263   83.5475    9.4410 C.3     1  UNL1        0.0001
     26 C          63.3251   84.7259    8.7338 C.3     1  UNL1        0.0017
     27 C          62.8879   84.5998    7.3045 C.3     1  UNL1        0.0001
     28 C          64.7598   91.4493   13.9922 C.3     1  UNL1        0.1564
     29 N          66.0318   91.8073   14.7019 N.am    1  UNL1       -0.2727
     30 C          67.4211   91.6286   14.1655 C.3     1  UNL1        0.0943
     31 C          68.3858   92.1178   15.2047 C.3     1  UNL1        0.0311
     32 C          67.5927   92.5988   16.3836 C.3     1  UNL1        0.0870
     33 C          66.1378   92.4070   16.0729 C.2     1  UNL1        0.2260
     34 O          64.9905   92.7538   16.9746 O.2     1  UNL1       -0.2749
     35 C          63.6517   90.7661   14.7376 C.3     1  UNL1        0.0564
     36 C          63.7718   89.3142   15.0947 C.ar    1  UNL1       -0.0094
     37 C          64.4849   88.3713   14.1714 C.ar    1  UNL1       -0.0025
     38 C          64.6051   86.9194   14.5285 C.ar    1  UNL1        0.0111
     39 C          64.0120   86.4104   15.8089 C.ar    1  UNL1        0.0585
     40 CL         64.1321   84.9585   16.1660 Cl      1  UNL1       -0.0822
     41 C          63.2989   87.3533   16.7321 C.ar    1  UNL1        0.0225
     42 C          63.1788   88.8052   16.3750 C.ar    1  UNL1        0.0546
     43 CL         62.4657   89.7481   17.2983 Cl      1  UNL1       -0.0825
@<TRIPOS>BOND
     1    25    26    1
     2    26    27    1
     3    26    24    1
     4    15    24    1
     5    15    16    1
     6    16    18    1
     7    18    19    1
     8    19    20    1
     9    20    21    1
    10    15     9    1
    11     9    10   ar
    12    10    11   ar
    13    11    12   ar
    14    12    13   ar
    15    13    14   ar
    16    14     1    1
    17     1     2    1
    18     2     3    1
    19     3     4    1
    20     4     5   am
    21     5     6    2
    22     5    28    1
    23    28    35    1
    24    35    36    1
    25    36    37   ar
    26    37    38   ar
    27    38    39   ar
    28    39    40    1
    29    39    41   ar
    30    41    42   ar
    31    42    43    1
    32    28    29    1
    33    29    30    1
    34    30    31    1
    35    31    32    1
    36    32    33    1
    37    33    34    2
    38     4     7    1
    39     7     8    1
    40    14     9   ar
    41     8     1    1
    42    42    36   ar
    43    33    29   am
    44    16    17    1
    45    21    22    1
    46    21    23    1
@<TRIPOS>MOLECULE
*****
 43 46 0 0 0
SMALL
GASTEIGER

@<TRIPOS>ATOM
      1 N          64.1746   91.0324   12.7163 N.pl3   1  UNL1       -0.3043
      2 C          63.1947   91.6818   11.7845 C.3     1  UNL1        0.1123
      3 C          62.3003   90.8354   10.9280 C.3     1  UNL1        0.1149
      4 N          62.3856   89.3397   11.0033 N.am    1  UNL1       -0.2747
      5 C          61.4911   88.4934   10.1468 C.2     1  UNL1        0.2442
      6 O          60.5113   89.1427    9.2150 O.2     1  UNL1       -0.2731
      7 C          63.3654   88.6904   11.9352 C.3     1  UNL1        0.1149
      8 C          64.2599   89.5368   12.7917 C.3     1  UNL1        0.1123
      9 C          65.8788   92.9791   12.9535 C.ar    1  UNL1        0.0053
     10 C          66.7732   93.8254   13.8100 C.ar    1  UNL1       -0.0018
     11 C          66.8579   93.5715   15.2859 C.ar    1  UNL1       -0.0002
     12 C          66.0481   92.4713   15.9053 C.ar    1  UNL1        0.0012
     13 C          65.1537   91.6250   15.0488 C.ar    1  UNL1        0.0142
     14 C          65.0690   91.8788   13.5729 C.ar    1  UNL1        0.0451
     15 C          65.7942   93.2330   11.4775 C.3     1  UNL1        0.0780
     16 N          66.2029   92.1640   10.5080 N.3     1  UNL1       -0.2950
     17 H          65.5391   92.1987    9.7343 H       1  UNL1        0.1235
     18 C          67.5751   92.1855    9.9024 C.3     1  UNL1        0.0702
     19 C          68.7847   92.2409   10.7877 C.3     1  UNL1        0.0339
     20 C          68.8723   91.3541   11.9943 C.3     1  UNL1        0.0666
     21 N          69.6089   91.8195   13.2153 N.3     1  UNL1       -0.3211
     22 H          70.6015   91.9119   12.9990 H       1  UNL1        0.1189
     23 H          69.4864   91.1399   13.9660 H       1  UNL1        0.1189
     24 C          65.3008   94.5559   10.9712 C.3     1  UNL1        0.0203
     25 C          66.2877   96.8551   11.6708 C.3     1  UNL1        0.0001
     26 C          66.2682   95.6787   10.7403 C.3     1  UNL1        0.0017
     27 C          67.2160   95.6252    9.5790 C.3     1  UNL1        0.0001
     28 C          61.5765   86.9978   10.2222 C.3     1  UNL1        0.1564
     29 N          61.7398   86.1917    8.9677 N.am    1  UNL1       -0.2727
     30 C          63.0052   85.5364    8.4993 C.3     1  UNL1        0.0943
     31 C          62.7139   84.8391    7.2035 C.3     1  UNL1        0.0311
     32 C          61.2685   85.0635    6.8712 C.3     1  UNL1        0.0870
     33 C          60.6664   85.8994    7.9615 C.2     1  UNL1        0.2260
     34 O          59.2414   86.3618    8.0330 O.2     1  UNL1       -0.2749
     35 C          61.4985   86.3081   11.5520 C.3     1  UNL1        0.0564
     36 C          62.3338   85.0903   11.8154 C.ar    1  UNL1       -0.0094
     37 C          62.1439   83.8564   10.9837 C.ar    1  UNL1       -0.0025
     38 C          62.9791   82.6386   11.2471 C.ar    1  UNL1        0.0111
     39 C          64.0042   82.6547   12.3421 C.ar    1  UNL1        0.0585
     40 CL         64.8394   81.4369   12.6055 Cl      1  UNL1       -0.0822
     41 C          64.1940   83.8885   13.1737 C.ar    1  UNL1        0.0225
     42 C          63.3588   85.1063   12.9103 C.ar    1  UNL1        0.0546
     43 CL         63.5486   86.3401   13.7419 Cl      1  UNL1       -0.0825
@<TRIPOS>BOND
     1    25    26    1
     2    26    27    1
     3    26    24    1
     4    15    24    1
     5    15    16    1
     6    16    18    1
     7    18    19    1
     8    19    20    1
     9    20    21    1
    10    15     9    1
    11     9    10   ar
    12    10    11   ar
    13    11    12   ar
    14    12    13   ar
    15    13    14   ar
    16    14     1    1
    17     1     2    1
    18     2     3    1
    19     3     4    1
    20     4     5   am
    21     5     6    2
    22     5    28    1
    23    28    35    1
    24    35    36    1
    25    36    37   ar
    26    37    38   ar
    27    38    39   ar
    28    39    40    1
    29    39    41   ar
    30    41    42   ar
    31    42    43    1
    32    28    29    1
    33    29    30    1
    34    30    31    1
    35    31    32    1
    36    32    33    1
    37    33    34    2
    38     4     7    1
    39     7     8    1
    40    14     9   ar
    41     8     1    1
    42    42    36   ar
    43    33    29   am
    44    16    17    1
    45    21    22    1
    46    21    23    1
@<TRIPOS>MOLECULE
*****
 43 46 0 0 0
SMALL
GASTEIGER

@<TRIPOS>ATOM
      1 N          56.4216   94.8116   -1.6740 N.pl3   1  UNL1       -0.3043
      2 C          56.5333   93.3160   -1.7033 C.3     1  UNL1        0.1123
      3 C          57.7670   92.6456   -1.1756 C.3     1  UNL1        0.1149
      4 N          58.8891   93.4707   -0.6185 N.am    1  UNL1       -0.2747
      5 C          60.1228   92.8003   -0.0909 C.2     1  UNL1        0.2442
      6 O          60.2345   91.3047   -0.1202 O.2     1  UNL1       -0.2731
      7 C          58.7774   94.9663   -0.5892 C.3     1  UNL1        0.1149
      8 C          57.5436   95.6367   -1.1169 C.3     1  UNL1        0.1123
      9 C          55.0853   95.8246   -3.6584 C.ar    1  UNL1        0.0053
     10 C          53.8515   96.4950   -4.1860 C.ar    1  UNL1       -0.0018
     11 C          52.7204   96.8228   -3.2570 C.ar    1  UNL1       -0.0002
     12 C          52.8230   96.4802   -1.8003 C.ar    1  UNL1        0.0012
     13 C          54.0568   95.8098   -1.2726 C.ar    1  UNL1        0.0142
     14 C          55.1879   95.4820   -2.2017 C.ar    1  UNL1        0.0451
     15 C          56.2164   95.4968   -4.5875 C.3     1  UNL1        0.0780
     16 N          56.0068   94.5250   -5.7106 N.3     1  UNL1       -0.2950
     17 H          56.8379   94.5725   -6.3000 H       1  UNL1        0.1235
     18 C          55.7696   93.0742   -5.4127 C.3     1  UNL1        0.0702
     19 C          56.8687   92.0756   -5.6243 C.3     1  UNL1        0.0339
     20 C          57.2815   91.1661   -4.5051 C.3     1  UNL1        0.0666
     21 N          56.2394   90.4659   -3.6845 N.3     1  UNL1       -0.3211
     22 H          55.7034   91.1544   -3.1562 H       1  UNL1        0.1189
     23 H          56.6928   89.8195   -3.0388 H       1  UNL1        0.1189
     24 C          57.5571   96.1409   -4.3933 C.3     1  UNL1        0.0203
     25 C          59.4190   95.9552   -6.1958 C.3     1  UNL1        0.0001
     26 C          58.7929   95.4739   -4.9205 C.3     1  UNL1        0.0017
     27 C          59.4026   94.3257   -4.1723 C.3     1  UNL1        0.0001
     28 C          61.2447   93.6254    0.4661 C.3     1  UNL1        0.1564
     29 N          62.3546   94.0859   -0.4318 N.am    1  UNL1       -0.2727
     30 C          62.3489   94.0477   -1.9312 C.3     1  UNL1        0.0943
     31 C          63.6558   94.6036   -2.4141 C.3     1  UNL1        0.0311
     32 C          64.4691   94.9854   -1.2129 C.3     1  UNL1        0.0870
     33 C          63.6650   94.6654    0.0122 C.2     1  UNL1        0.2260
     34 O          64.0955   94.8863    1.4320 O.2     1  UNL1       -0.2749
     35 C          61.2569   93.9901    1.9211 C.3     1  UNL1        0.0564
     36 C          60.8324   92.9844    2.9500 C.ar    1  UNL1       -0.0094
     37 C          59.4425   93.0280    3.5125 C.ar    1  UNL1       -0.0025
     38 C          59.0179   92.0223    4.5413 C.ar    1  UNL1        0.0111
     39 C          59.9833   90.9732    5.0076 C.ar    1  UNL1        0.0585
     40 CL         59.5588   89.9675    6.0364 Cl      1  UNL1       -0.0822
     41 C          61.3731   90.9297    4.4451 C.ar    1  UNL1        0.0225
     42 C          61.7977   91.9353    3.4163 C.ar    1  UNL1        0.0546
     43 CL         63.1875   91.8918    2.8537 Cl      1  UNL1       -0.0825
@<TRIPOS>BOND
     1    25    26    1
     2    26    27    1
     3    26    24    1
     4    15    24    1
     5    15    16    1
     6    16    18    1
     7    18    19    1
     8    19    20    1
     9    20    21    1
    10    15     9    1
    11     9    10   ar
    12    10    11   ar
    13    11    12   ar
    14    12    13   ar
    15    13    14   ar
    16    14     1    1
    17     1     2    1
    18     2     3    1
    19     3     4    1
    20     4     5   am
    21     5     6    2
    22     5    28    1
    23    28    35    1
    24    35    36    1
    25    36    37   ar
    26    37    38   ar
    27    38    39   ar
    28    39    40    1
    29    39    41   ar
    30    41    42   ar
    31    42    43    1
    32    28    29    1
    33    29    30    1
    34    30    31    1
    35    31    32    1
    36    32    33    1
    37    33    34    2
    38     4     7    1
    39     7     8    1
    40    14     9   ar
    41     8     1    1
    42    42    36   ar
    43    33    29   am
    44    16    17    1
    45    21    22    1
    46    21    23    1
@<TRIPOS>MOLECULE
*****
 43 46 0 0 0
SMALL
GASTEIGER

@<TRIPOS>ATOM
      1 N          62.5326   88.1836   10.1040 N.pl3   1  UNL1       -0.3043
      2 C          62.7703   89.5818    9.6155 C.3     1  UNL1        0.1123
      3 C          63.3075   90.6225   10.5526 C.3     1  UNL1        0.1149
      4 N          63.6072   90.2650   11.9783 N.am    1  UNL1       -0.2747
      5 C          64.1445   91.3057   12.9154 C.2     1  UNL1        0.2442
      6 O          64.3821   92.7039   12.4269 O.2     1  UNL1       -0.2731
      7 C          63.3696   88.8668   12.4668 C.3     1  UNL1        0.1149
      8 C          62.8323   87.8261   11.5296 C.3     1  UNL1        0.1123
      9 C          60.5966   87.2603    8.6378 C.ar    1  UNL1        0.0053
     10 C          60.0594   86.2196    7.7007 C.ar    1  UNL1       -0.0018
     11 C          60.9208   85.0615    7.2925 C.ar    1  UNL1       -0.0002
     12 C          62.3195   84.9440    7.8215 C.ar    1  UNL1        0.0012
     13 C          62.8568   85.9847    8.7586 C.ar    1  UNL1        0.0142
     14 C          61.9953   87.1429    9.1668 C.ar    1  UNL1        0.0451
     15 C          59.7352   88.4185    9.0460 C.3     1  UNL1        0.0780
     16 N          59.6036   89.6098    8.1442 N.3     1  UNL1       -0.2950
     17 H          60.5390   90.0022    8.0364 H       1  UNL1        0.1235
     18 C          59.0406   89.4468    6.7635 C.3     1  UNL1        0.0702
     19 C          59.4574   90.3833    5.6682 C.3     1  UNL1        0.0339
     20 C          58.4929   91.4091    5.1512 C.3     1  UNL1        0.0666
     21 N          58.9556   92.8134    4.8984 N.3     1  UNL1       -0.3211
     22 H          59.2125   93.2512    5.7831 H       1  UNL1        0.1189
     23 H          58.2033   93.3458    4.4614 H       1  UNL1        0.1189
     24 C          59.0053   88.3852   10.3560 C.3     1  UNL1        0.0203
     25 C          59.3551   88.9051   12.8774 C.3     1  UNL1        0.0001
     26 C          59.3740   89.3490   11.4447 C.3     1  UNL1        0.0017
     27 C          59.7615   90.7566   11.1007 C.3     1  UNL1        0.0001
     28 C          64.4442   90.9482   14.3410 C.3     1  UNL1        0.1564
     29 N          65.7090   91.4325   14.9857 N.am    1  UNL1       -0.2727
     30 C          67.1039   91.1556   14.5086 C.3     1  UNL1        0.0943
     31 C          68.0580   91.8307   15.4487 C.3     1  UNL1        0.0311
     32 C          67.2529   92.5248   16.5069 C.3     1  UNL1        0.0870
     33 C          65.8011   92.2788   16.2208 C.2     1  UNL1        0.2260
     34 O          64.6445   92.7893   17.0280 O.2     1  UNL1       -0.2749
     35 C          63.4790   90.1064   15.1220 C.3     1  UNL1        0.0564
     36 C          63.7446   88.6426   15.3129 C.ar    1  UNL1       -0.0094
     37 C          64.6805   87.9232   14.3872 C.ar    1  UNL1       -0.0025
     38 C          64.9461   86.4593   14.5782 C.ar    1  UNL1        0.0111
     39 C          64.2759   85.7148   15.6947 C.ar    1  UNL1        0.0585
     40 CL         64.5415   84.2509   15.8856 Cl      1  UNL1       -0.0822
     41 C          63.3401   86.4341   16.6202 C.ar    1  UNL1        0.0225
     42 C          63.0744   87.8980   16.4293 C.ar    1  UNL1        0.0546
     43 CL         62.1386   88.6174   17.3548 Cl      1  UNL1       -0.0825
@<TRIPOS>BOND
     1    25    26    1
     2    26    27    1
     3    26    24    1
     4    15    24    1
     5    15    16    1
     6    16    18    1
     7    18    19    1
     8    19    20    1
     9    20    21    1
    10    15     9    1
    11     9    10   ar
    12    10    11   ar
    13    11    12   ar
    14    12    13   ar
    15    13    14   ar
    16    14     1    1
    17     1     2    1
    18     2     3    1
    19     3     4    1
    20     4     5   am
    21     5     6    2
    22     5    28    1
    23    28    35    1
    24    35    36    1
    25    36    37   ar
    26    37    38   ar
    27    38    39   ar
    28    39    40    1
    29    39    41   ar
    30    41    42   ar
    31    42    43    1
    32    28    29    1
    33    29    30    1
    34    30    31    1
    35    31    32    1
    36    32    33    1
    37    33    34    2
    38     4     7    1
    39     7     8    1
    40    14     9   ar
    41     8     1    1
    42    42    36   ar
    43    33    29   am
    44    16    17    1
    45    21    22    1
    46    21    23    1
