@<TRIPOS>MOLECULE
*****
 29 33 0 0 0
SMALL
GASTEIGER

@<TRIPOS>ATOM
      1 C          62.6822   85.0903    9.4394 C.ar    1  UNL1        0.1208
      2 C          61.7133   86.0922    9.9941 C.ar    1  UNL1        0.0563
      3 C          61.4382   86.1330   11.4681 C.ar    1  UNL1        0.0336
      4 C          62.1320   85.1719   12.3874 C.ar    1  UNL1        0.0838
      5 N          63.1008   84.1701   11.8327 N.ar    1  UNL1       -0.2759
      6 C          63.9288   83.1049   12.4883 C.ar    1  UNL1        0.1471
      7 N          64.7155   82.4057   11.4196 N.ar    1  UNL1       -0.1330
      8 N          64.3738   83.0389   10.1034 N.ar    1  UNL1       -0.1287
      9 C          63.3759   84.1293   10.3587 C.ar    1  UNL1        0.1752
     10 N          61.0195   87.0532    9.0748 N.pl3   1  UNL1       -0.3074
     11 C          61.1904   88.5310    9.2671 C.3     1  UNL1        0.0911
     12 C          60.4967   89.4921    8.3478 C.3     1  UNL1        0.0258
     13 C          59.6320   88.9753    7.2363 C.3     1  UNL1        0.0257
     14 C          59.4612   87.4975    7.0441 C.3     1  UNL1        0.0258
     15 C          60.1549   86.5365    7.9634 C.3     1  UNL1        0.0911
     16 C          58.9383   89.9364    6.3170 C.ar    1  UNL1       -0.0224
     17 C          59.7401   90.9154    5.5116 C.ar    1  UNL1       -0.0043
     18 C          59.0464   91.8765    4.5923 C.ar    1  UNL1       -0.0003
     19 C          57.5508   91.8585    4.4784 C.ar    1  UNL1       -0.0000
     20 C          56.7490   90.8795    5.2838 C.ar    1  UNL1       -0.0003
     21 C          57.4427   89.9184    6.2031 C.ar    1  UNL1       -0.0043
     22 F          63.2323   85.0088    6.4914 F       1  UNL1       -0.1657
     23 C          62.9572   85.0496    7.9654 C.3     1  UNL1        0.4226
     24 F          63.9374   86.1749    8.1172 F       1  UNL1       -0.1657
     25 F          61.9771   83.9243    7.8136 F       1  UNL1       -0.1657
     26 C          63.9638   82.7934   13.9552 C.3     1  UNL1        0.0662
     27 C          63.6182   83.8560   14.9559 C.3     1  UNL1        0.0076
     28 C          63.9633   85.1286   15.6712 C.3     1  UNL1        0.0005
     29 C          62.6743   84.4239   15.9741 C.3     1  UNL1        0.0005
@<TRIPOS>BOND
     1    22    23    1
     2    23    24    1
     3    23    25    1
     4    23     1    1
     5     1     2   ar
     6     2    10    1
     7    10    11    1
     8    11    12    1
     9    12    13    1
    10    13    16    1
    11    16    17   ar
    12    17    18   ar
    13    18    19   ar
    14    19    20   ar
    15    20    21   ar
    16    13    14    1
    17    14    15    1
    18     2     3   ar
    19     3     4   ar
    20     4     5   ar
    21     5     6   ar
    22     6    26    1
    23    26    27    1
    24    27    28    1
    25    28    29    1
    26     6     7   ar
    27     7     8   ar
    28     8     9   ar
    29     9     1   ar
    30    15    10    1
    31     9     5   ar
    32    21    16   ar
    33    29    27    1
@<TRIPOS>MOLECULE
*****
 29 33 0 0 0
SMALL
GASTEIGER

@<TRIPOS>ATOM
      1 C          62.6830   85.0913    9.4365 C.ar    1  UNL1        0.1208
      2 C          61.7126   86.0917    9.9911 C.ar    1  UNL1        0.0563
      3 C          61.4333   86.1287   11.4644 C.ar    1  UNL1        0.0336
      4 C          62.1245   85.1653   12.3832 C.ar    1  UNL1        0.0838
      5 N          63.0949   84.1649   11.8286 N.ar    1  UNL1       -0.2759
      6 C          63.9210   83.0980   12.4839 C.ar    1  UNL1        0.1471
      7 N          64.7108   82.4017   11.4156 N.ar    1  UNL1       -0.1330
      8 N          64.3729   83.0382   10.1001 N.ar    1  UNL1       -0.1287
      9 C          63.3742   84.1279   10.3553 C.ar    1  UNL1        0.1752
     10 N          61.0214   87.0551    9.0723 N.pl3   1  UNL1       -0.3074
     11 C          60.1561   86.5412    7.9600 C.3     1  UNL1        0.0911
     12 C          59.4649   87.5046    7.0412 C.3     1  UNL1        0.0258
     13 C          59.6391   88.9818    7.2347 C.3     1  UNL1        0.0257
     14 C          60.5044   89.4957    8.3470 C.3     1  UNL1        0.0258
     15 C          61.1955   88.5323    9.2658 C.3     1  UNL1        0.0911
     16 C          58.9479   89.9452    6.3159 C.ar    1  UNL1       -0.0224
     17 C          57.4521   89.9327    6.2034 C.ar    1  UNL1       -0.0043
     18 C          56.7610   90.8960    5.2847 C.ar    1  UNL1       -0.0003
     19 C          57.5656   91.8720    4.4783 C.ar    1  UNL1       -0.0000
     20 C          59.0613   91.8845    4.5907 C.ar    1  UNL1       -0.0003
     21 C          59.7525   90.9211    5.5095 C.ar    1  UNL1       -0.0043
     22 F          63.2416   85.0173    6.4899 F       1  UNL1       -0.1657
     23 C          62.9623   85.0543    7.9632 C.3     1  UNL1        0.4226
     24 F          61.9820   83.9300    7.8056 F       1  UNL1       -0.1657
     25 F          63.9426   86.1786    8.1208 F       1  UNL1       -0.1657
     26 C          63.9518   82.7829   13.9501 C.3     1  UNL1        0.0662
     27 C          63.6045   83.8432   14.9526 C.3     1  UNL1        0.0076
     28 C          63.9476   85.1150   15.6701 C.3     1  UNL1        0.0005
     29 C          62.6596   84.4079   15.9716 C.3     1  UNL1        0.0005
@<TRIPOS>BOND
     1    22    23    1
     2    23    24    1
     3    23    25    1
     4    23     1    1
     5     1     2   ar
     6     2    10    1
     7    10    11    1
     8    11    12    1
     9    12    13    1
    10    13    16    1
    11    16    17   ar
    12    17    18   ar
    13    18    19   ar
    14    19    20   ar
    15    20    21   ar
    16    13    14    1
    17    14    15    1
    18     2     3   ar
    19     3     4   ar
    20     4     5   ar
    21     5     6   ar
    22     6    26    1
    23    26    27    1
    24    27    28    1
    25    28    29    1
    26     6     7   ar
    27     7     8   ar
    28     8     9   ar
    29     9     1   ar
    30    15    10    1
    31     9     5   ar
    32    21    16   ar
    33    29    27    1
@<TRIPOS>MOLECULE
*****
 29 33 0 0 0
SMALL
GASTEIGER

@<TRIPOS>ATOM
      1 C          60.4244   94.3848   -1.6327 C.ar    1  UNL1        0.1208
      2 C          59.2209   94.4233   -0.7380 C.ar    1  UNL1        0.0563
      3 C          59.3653   94.1313    0.7262 C.ar    1  UNL1        0.0336
      4 C          60.7131   93.8007    1.2957 C.ar    1  UNL1        0.0838
      5 N          61.9164   93.7622    0.4011 N.ar    1  UNL1       -0.2759
      6 C          63.3618   93.4693    0.6750 C.ar    1  UNL1        0.1471
      7 N          64.1108   93.5803   -0.6199 N.ar    1  UNL1       -0.1330
      8 N          63.1282   93.9418   -1.6941 N.ar    1  UNL1       -0.1287
      9 C          61.7721   94.0542   -1.0631 C.ar    1  UNL1        0.1752
     10 N          57.8732   94.7538   -1.3075 N.pl3   1  UNL1       -0.3074
     11 C          56.9007   93.6552   -1.6189 C.3     1  UNL1        0.0911
     12 C          55.5529   93.9857   -2.1885 C.3     1  UNL1        0.0258
     13 C          55.1778   95.4149   -2.4466 C.3     1  UNL1        0.0257
     14 C          56.1504   96.5136   -2.1352 C.3     1  UNL1        0.0258
     15 C          57.4981   96.1830   -1.5657 C.3     1  UNL1        0.0911
     16 C          53.8301   95.7454   -3.0162 C.ar    1  UNL1       -0.0224
     17 C          53.6915   96.0730   -4.4734 C.ar    1  UNL1       -0.0043
     18 C          52.3438   96.4035   -5.0430 C.ar    1  UNL1       -0.0003
     19 C          51.1346   96.4066   -4.1553 C.ar    1  UNL1       -0.0000
     20 C          51.2732   96.0791   -2.6981 C.ar    1  UNL1       -0.0003
     21 C          52.6209   95.7485   -2.1285 C.ar    1  UNL1       -0.0043
     22 F          60.1356   94.9688   -4.5611 F       1  UNL1       -0.1657
     23 C          60.2800   94.6768   -3.0969 C.3     1  UNL1        0.4226
     24 F          60.6782   96.1021   -2.8519 F       1  UNL1       -0.1657
     25 F          59.8818   93.2515   -3.3419 F       1  UNL1       -0.1657
     26 C          63.9542   93.1257    2.0095 C.3     1  UNL1        0.0662
     27 C          63.4497   91.9353    2.7700 C.3     1  UNL1        0.0076
     28 C          63.6445   90.5338    3.2679 C.3     1  UNL1        0.0005
     29 C          62.3808   91.2750    3.5895 C.3     1  UNL1        0.0005
@<TRIPOS>BOND
     1    22    23    1
     2    23    24    1
     3    23    25    1
     4    23     1    1
     5     1     2   ar
     6     2    10    1
     7    10    11    1
     8    11    12    1
     9    12    13    1
    10    13    16    1
    11    16    17   ar
    12    17    18   ar
    13    18    19   ar
    14    19    20   ar
    15    20    21   ar
    16    13    14    1
    17    14    15    1
    18     2     3   ar
    19     3     4   ar
    20     4     5   ar
    21     5     6   ar
    22     6    26    1
    23    26    27    1
    24    27    28    1
    25    28    29    1
    26     6     7   ar
    27     7     8   ar
    28     8     9   ar
    29     9     1   ar
    30    15    10    1
    31     9     5   ar
    32    21    16   ar
    33    29    27    1
@<TRIPOS>MOLECULE
*****
 29 33 0 0 0
SMALL
GASTEIGER

@<TRIPOS>ATOM
      1 C          60.8286   88.4775   10.1273 C.ar    1  UNL1        0.1208
      2 C          62.2150   88.0707   10.5305 C.ar    1  UNL1        0.0563
      3 C          62.8571   86.8700    9.9013 C.ar    1  UNL1        0.0336
      4 C          62.1129   86.0760    8.8690 C.ar    1  UNL1        0.0838
      5 N          60.7265   86.4828    8.4658 N.ar    1  UNL1       -0.2759
      6 C          59.7551   85.8992    7.4831 C.ar    1  UNL1        0.1471
      7 N          58.5125   86.7392    7.5050 N.ar    1  UNL1       -0.1330
      8 N          58.7161   87.8420    8.5011 N.ar    1  UNL1       -0.1287
      9 C          60.0844   87.6835    9.0950 C.ar    1  UNL1        0.1752
     10 N          62.9592   88.8647   11.5629 N.pl3   1  UNL1       -0.3074
     11 C          63.2335   90.3215   11.3343 C.3     1  UNL1        0.0911
     12 C          63.9777   91.1156   12.3667 C.3     1  UNL1        0.0258
     13 C          64.4476   90.4527   13.6276 C.3     1  UNL1        0.0257
     14 C          64.1733   88.9957   13.8561 C.3     1  UNL1        0.0258
     15 C          63.4291   88.2018   12.8237 C.3     1  UNL1        0.0911
     16 C          65.1918   91.2466   14.6599 C.ar    1  UNL1       -0.0224
     17 C          64.4786   91.7411   15.8835 C.ar    1  UNL1       -0.0043
     18 C          65.2228   92.5351   16.9158 C.ar    1  UNL1       -0.0003
     19 C          66.6801   92.8346   16.7247 C.ar    1  UNL1       -0.0000
     20 C          67.3933   92.3401   15.5012 C.ar    1  UNL1       -0.0003
     21 C          66.6491   91.5461   14.4688 C.ar    1  UNL1       -0.0043
     22 F          59.5443   90.8790   11.3857 F       1  UNL1       -0.1657
     23 C          60.1865   89.6782   10.7565 C.3     1  UNL1        0.4226
     24 F          59.8588   88.8652   11.9737 F       1  UNL1       -0.1657
     25 F          60.5141   90.4913    9.5393 F       1  UNL1       -0.1657
     26 C          59.9857   84.6881    6.6286 C.3     1  UNL1        0.0662
     27 C          61.3165   84.4777    5.9694 C.3     1  UNL1        0.0076
     28 C          62.1233   84.1186    4.7569 C.3     1  UNL1        0.0005
     29 C          62.8148   84.4725    6.0400 C.3     1  UNL1        0.0005
@<TRIPOS>BOND
     1    22    23    1
     2    23    24    1
     3    23    25    1
     4    23     1    1
     5     1     2   ar
     6     2    10    1
     7    10    11    1
     8    11    12    1
     9    12    13    1
    10    13    16    1
    11    16    17   ar
    12    17    18   ar
    13    18    19   ar
    14    19    20   ar
    15    20    21   ar
    16    13    14    1
    17    14    15    1
    18     2     3   ar
    19     3     4   ar
    20     4     5   ar
    21     5     6   ar
    22     6    26    1
    23    26    27    1
    24    27    28    1
    25    28    29    1
    26     6     7   ar
    27     7     8   ar
    28     8     9   ar
    29     9     1   ar
    30    15    10    1
    31     9     5   ar
    32    21    16   ar
    33    29    27    1
@<TRIPOS>MOLECULE
*****
 29 33 0 0 0
SMALL
GASTEIGER

@<TRIPOS>ATOM
      1 C          62.2549   87.0006   11.5561 C.ar    1  UNL1        0.1208
      2 C          61.7767   86.4517   10.2445 C.ar    1  UNL1        0.0563
      3 C          61.9952   85.0054    9.9124 C.ar    1  UNL1        0.0336
      4 C          62.6920   84.1079   10.8918 C.ar    1  UNL1        0.0838
      5 N          63.1701   84.6569   12.2033 N.ar    1  UNL1       -0.2759
      6 C          63.8828   84.0186   13.3586 C.ar    1  UNL1        0.1471
      7 N          64.1047   85.0704   14.4047 N.ar    1  UNL1       -0.1330
      8 N          63.5292   86.3588   13.8960 N.ar    1  UNL1       -0.1287
      9 C          62.9516   86.1032   12.5354 C.ar    1  UNL1        0.1752
     10 N          61.0800   87.3492    9.2651 N.pl3   1  UNL1       -0.3074
     11 C          61.3166   88.8298    9.3050 C.3     1  UNL1        0.0911
     12 C          60.6199   89.7273    8.3256 C.3     1  UNL1        0.0258
     13 C          59.6866   89.1441    7.3064 C.3     1  UNL1        0.0257
     14 C          59.4500   87.6634    7.2666 C.3     1  UNL1        0.0258
     15 C          60.1467   86.7659    8.2459 C.3     1  UNL1        0.0911
     16 C          58.9899   90.0415    6.3270 C.ar    1  UNL1       -0.0224
     17 C          59.7877   90.9788    5.4696 C.ar    1  UNL1       -0.0043
     18 C          59.0910   91.8762    4.4903 C.ar    1  UNL1       -0.0003
     19 C          57.5965   91.8365    4.3682 C.ar    1  UNL1       -0.0000
     20 C          56.7987   90.8993    5.2256 C.ar    1  UNL1       -0.0003
     21 C          57.4954   90.0018    6.2050 C.ar    1  UNL1       -0.0043
     22 F          61.8178   89.8934   12.2203 F       1  UNL1       -0.1657
     23 C          62.0364   88.4470   11.8882 C.3     1  UNL1        0.4226
     24 F          63.5155   88.6864   11.8187 F       1  UNL1       -0.1657
     25 F          60.5572   88.2076   11.9576 F       1  UNL1       -0.1657
     26 C          64.3002   82.5808   13.4515 C.3     1  UNL1        0.0662
     27 C          63.2763   81.4926   13.3197 C.3     1  UNL1        0.0076
     28 C          62.0878   80.7546   13.8609 C.3     1  UNL1        0.0005
     29 C          62.6914   80.3455   12.5501 C.3     1  UNL1        0.0005
@<TRIPOS>BOND
     1    22    23    1
     2    23    24    1
     3    23    25    1
     4    23     1    1
     5     1     2   ar
     6     2    10    1
     7    10    11    1
     8    11    12    1
     9    12    13    1
    10    13    16    1
    11    16    17   ar
    12    17    18   ar
    13    18    19   ar
    14    19    20   ar
    15    20    21   ar
    16    13    14    1
    17    14    15    1
    18     2     3   ar
    19     3     4   ar
    20     4     5   ar
    21     5     6   ar
    22     6    26    1
    23    26    27    1
    24    27    28    1
    25    28    29    1
    26     6     7   ar
    27     7     8   ar
    28     8     9   ar
    29     9     1   ar
    30    15    10    1
    31     9     5   ar
    32    21    16   ar
    33    29    27    1
@<TRIPOS>MOLECULE
*****
 29 33 0 0 0
SMALL
GASTEIGER

@<TRIPOS>ATOM
      1 C          62.9383   87.5904   12.2695 C.ar    1  UNL1        0.1208
      2 C          63.5438   86.4893   13.0886 C.ar    1  UNL1        0.0563
      3 C          64.3152   86.8172   14.3326 C.ar    1  UNL1        0.0336
      4 C          64.4811   88.2462   14.7574 C.ar    1  UNL1        0.0838
      5 N          63.8756   89.3473   13.9382 N.ar    1  UNL1       -0.2759
      6 C          63.8726   90.8379   14.1061 C.ar    1  UNL1        0.1471
      7 N          63.0994   91.4312   12.9659 N.ar    1  UNL1       -0.1330
      8 N          62.6245   90.3073   12.0934 N.ar    1  UNL1       -0.1287
      9 C          63.1042   89.0194   12.6943 C.ar    1  UNL1        0.1752
     10 N          63.3778   85.0603   12.6638 N.pl3   1  UNL1       -0.3074
     11 C          62.7679   84.0642   13.6049 C.3     1  UNL1        0.0911
     12 C          62.6020   82.6351   13.1801 C.3     1  UNL1        0.0258
     13 C          63.0459   82.2023   11.8142 C.3     1  UNL1        0.0257
     14 C          63.6558   83.1986   10.8731 C.3     1  UNL1        0.0258
     15 C          63.8218   84.6276   11.2979 C.3     1  UNL1        0.0911
     16 C          62.8800   80.7734   11.3894 C.ar    1  UNL1       -0.0224
     17 C          62.9917   80.4041    9.9398 C.ar    1  UNL1       -0.0043
     18 C          62.8257   78.9751    9.5150 C.ar    1  UNL1       -0.0003
     19 C          62.5481   77.9154   10.5397 C.ar    1  UNL1       -0.0000
     20 C          62.4364   78.2847   11.9892 C.ar    1  UNL1       -0.0003
     21 C          62.6023   79.7137   12.4141 C.ar    1  UNL1       -0.0043
     22 F          61.3954   86.9346    9.7816 F       1  UNL1       -0.1657
     23 C          62.1668   87.2625   11.0255 C.3     1  UNL1        0.4226
     24 F          61.2095   86.4400   11.8360 F       1  UNL1       -0.1657
     25 F          63.1242   88.0851   10.2150 F       1  UNL1       -0.1657
     26 C          64.5279   91.6011   15.2188 C.3     1  UNL1        0.0662
     27 C          66.0056   91.8564   15.1845 C.3     1  UNL1        0.0076
     28 C          67.2221   92.5244   15.7538 C.3     1  UNL1        0.0005
     29 C          67.3487   91.6306   14.5559 C.3     1  UNL1        0.0005
@<TRIPOS>BOND
     1    22    23    1
     2    23    24    1
     3    23    25    1
     4    23     1    1
     5     1     2   ar
     6     2    10    1
     7    10    11    1
     8    11    12    1
     9    12    13    1
    10    13    16    1
    11    16    17   ar
    12    17    18   ar
    13    18    19   ar
    14    19    20   ar
    15    20    21   ar
    16    13    14    1
    17    14    15    1
    18     2     3   ar
    19     3     4   ar
    20     4     5   ar
    21     5     6   ar
    22     6    26    1
    23    26    27    1
    24    27    28    1
    25    28    29    1
    26     6     7   ar
    27     7     8   ar
    28     8     9   ar
    29     9     1   ar
    30    15    10    1
    31     9     5   ar
    32    21    16   ar
    33    29    27    1
@<TRIPOS>MOLECULE
*****
 29 33 0 0 0
SMALL
GASTEIGER

@<TRIPOS>ATOM
      1 C          60.5043   92.8659    2.1906 C.ar    1  UNL1        0.1208
      2 C          61.9526   92.6237    1.8840 C.ar    1  UNL1        0.0563
      3 C          62.7916   91.8081    2.8226 C.ar    1  UNL1        0.0336
      4 C          62.1824   91.2347    4.0677 C.ar    1  UNL1        0.0838
      5 N          60.7342   91.4770    4.3742 N.ar    1  UNL1       -0.2759
      6 C          59.8637   91.0431    5.5162 C.ar    1  UNL1        0.1471
      7 N          58.4867   91.5906    5.2835 N.ar    1  UNL1       -0.1330
      8 N          58.5062   92.3627    3.9976 N.ar    1  UNL1       -0.1287
      9 C          59.8951   92.2925    3.4357 C.ar    1  UNL1        0.1752
     10 N          62.5617   93.1970    0.6390 N.pl3   1  UNL1       -0.3074
     11 C          63.8067   94.0289    0.7277 C.3     1  UNL1        0.0911
     12 C          64.4159   94.6023   -0.5174 C.3     1  UNL1        0.0258
     13 C          63.7801   94.3437   -1.8511 C.3     1  UNL1        0.0257
     14 C          62.5350   93.5118   -1.9398 C.3     1  UNL1        0.0258
     15 C          61.9259   92.9384   -0.6947 C.3     1  UNL1        0.0911
     16 C          64.3892   94.9171   -3.0962 C.ar    1  UNL1       -0.0224
     17 C          65.0098   96.2824   -3.0674 C.ar    1  UNL1       -0.0043
     18 C          65.6189   96.8558   -4.3125 C.ar    1  UNL1       -0.0003
     19 C          65.6075   96.0638   -5.5863 C.ar    1  UNL1       -0.0000
     20 C          64.9870   94.6985   -5.6151 C.ar    1  UNL1       -0.0003
     21 C          64.3778   94.1251   -4.3700 C.ar    1  UNL1       -0.0043
     22 F          58.8262   94.4970    0.3136 F       1  UNL1       -0.1657
     23 C          59.6652   93.6814    1.2521 C.3     1  UNL1        0.4226
     24 F          60.1924   94.9402    1.8747 F       1  UNL1       -0.1657
     25 F          59.1381   92.4227    0.6295 F       1  UNL1       -0.1657
     26 C          60.2947   90.2084    6.6856 C.3     1  UNL1        0.0662
     27 C          59.5441   88.9564    7.0305 C.3     1  UNL1        0.0076
     28 C          59.5283   87.5610    7.5809 C.3     1  UNL1        0.0005
     29 C          58.2596   88.1832    7.0777 C.3     1  UNL1        0.0005
@<TRIPOS>BOND
     1    22    23    1
     2    23    24    1
     3    23    25    1
     4    23     1    1
     5     1     2   ar
     6     2    10    1
     7    10    11    1
     8    11    12    1
     9    12    13    1
    10    13    16    1
    11    16    17   ar
    12    17    18   ar
    13    18    19   ar
    14    19    20   ar
    15    20    21   ar
    16    13    14    1
    17    14    15    1
    18     2     3   ar
    19     3     4   ar
    20     4     5   ar
    21     5     6   ar
    22     6    26    1
    23    26    27    1
    24    27    28    1
    25    28    29    1
    26     6     7   ar
    27     7     8   ar
    28     8     9   ar
    29     9     1   ar
    30    15    10    1
    31     9     5   ar
    32    21    16   ar
    33    29    27    1
