@<TRIPOS>MOLECULE
*****
 34 36 0 0 0
SMALL
GASTEIGER

@<TRIPOS>ATOM
      1 C          63.3418   88.8562   16.1943 C.ar    1  UNL1       -0.0204
      2 C          64.1681   88.5652   14.9768 C.ar    1  UNL1       -0.0028
      3 C          64.9809   89.6554   14.3439 C.ar    1  UNL1        0.0199
      4 C          64.9676   91.0367   14.9285 C.ar    1  UNL1        0.1253
      5 C          64.1413   91.3278   16.1462 C.ar    1  UNL1        0.0199
      6 C          63.3284   90.2375   16.7791 C.ar    1  UNL1       -0.0028
      7 S          65.7804   92.1270   14.2956 S.O2    1  UNL1        0.0768
      8 O          65.9789   91.2726   13.0788 O.2     1  UNL1       -0.1498
      9 O          65.5820   92.9813   15.5124 O.2     1  UNL1       -0.1498
     10 N          66.5933   93.2172   13.6627 N.am    1  UNL1       -0.1693
     11 C          66.2168   93.7444   12.3098 C.2     1  UNL1        0.3194
     12 O          65.0274   93.1814   11.5898 O.2     1  UNL1       -0.2512
     13 N          67.0296   94.8347   11.6768 N.am    1  UNL1       -0.2894
     14 H          67.3740   93.5867   14.1352 H       1  UNL1        0.1781
     15 H          67.8103   95.2042   12.1494 H       1  UNL1        0.1509
     16 C          66.6531   95.3619   10.3240 C.3     1  UNL1        0.0731
     17 C          67.4157   94.9231    9.1092 C.3     1  UNL1        0.0196
     18 C          67.0392   95.4504    7.7563 C.3     1  UNL1        0.0017
     19 C          65.9001   96.4165    7.6183 C.3     1  UNL1        0.0001
     20 C          65.1375   96.8553    8.8331 C.3     1  UNL1        0.0017
     21 C          65.5140   96.3280   10.1860 C.3     1  UNL1        0.0196
     22 C          62.5289   87.7660   16.8273 C.3     1  UNL1        0.0476
     23 C          63.1681   86.4501   17.1591 C.3     1  UNL1        0.0944
     24 C          63.8635   84.7892   15.2862 C.2     1  UNL1        0.2652
     25 O          65.1440   85.5455   15.0909 O.2     1  UNL1       -0.2684
     26 N          62.8755   85.2415   16.3203 N.am    1  UNL1       -0.2992
     27 H          62.0351   84.7451   16.4484 H       1  UNL1        0.1498
     28 C          62.6931   79.9547   11.9309 C.3     1  UNL1        0.0538
     29 C          62.9857   81.1633   12.7697 C.ar    1  UNL1        0.0785
     30 C          62.2702   81.3630   14.0728 C.ar    1  UNL1        0.1137
     31 N          62.5627   82.5716   14.9116 N.ar    1  UNL1       -0.2364
     32 C          63.5709   83.5806   14.4474 C.ar    1  UNL1        0.1535
     33 C          64.2865   83.3809   13.1443 C.ar    1  UNL1        0.1221
     34 N          63.9939   82.1723   12.3055 N.ar    1  UNL1       -0.2448
@<TRIPOS>BOND
     1    28    29    1
     2    29    30   ar
     3    30    31   ar
     4    31    32   ar
     5    32    24    1
     6    24    25    2
     7    24    26   am
     8    26    23    1
     9    23    22    1
    10    22     1    1
    11     1     2   ar
    12     2     3   ar
    13     3     4   ar
    14     4     7    1
    15     7     8    2
    16     7     9    2
    17     7    10    1
    18    10    11   am
    19    11    12    2
    20    11    13   am
    21    13    16    1
    22    16    17    1
    23    17    18    1
    24    18    19    1
    25    19    20    1
    26    20    21    1
    27     4     5   ar
    28     5     6   ar
    29    32    33   ar
    30    33    34   ar
    31    34    29   ar
    32     6     1   ar
    33    21    16    1
    34    26    27    1
    35    10    14    1
    36    13    15    1
@<TRIPOS>MOLECULE
*****
 34 36 0 0 0
SMALL
GASTEIGER

@<TRIPOS>ATOM
      1 C          63.8308   89.7502   15.9005 C.ar    1  UNL1       -0.0204
      2 C          64.4085   89.0503   14.7062 C.ar    1  UNL1       -0.0028
      3 C          64.3205   87.5569   14.5968 C.ar    1  UNL1        0.0199
      4 C          63.6548   86.7634   15.6817 C.ar    1  UNL1        0.1253
      5 C          63.0770   87.4633   16.8761 C.ar    1  UNL1        0.0199
      6 C          63.1651   88.9567   16.9855 C.ar    1  UNL1       -0.0028
      7 S          63.5667   85.2700   15.5724 S.O2    1  UNL1        0.0768
      8 O          62.1862   85.3085   16.1578 O.2     1  UNL1       -0.1498
      9 O          64.9472   85.2315   14.9869 O.2     1  UNL1       -0.1498
     10 N          63.4787   83.7766   15.4630 N.am    1  UNL1       -0.1693
     11 C          63.3441   83.1298   14.1162 C.2     1  UNL1        0.3194
     12 O          63.2976   83.9765   12.8789 O.2     1  UNL1       -0.2512
     13 N          63.2561   81.6364   14.0068 N.am    1  UNL1       -0.2894
     14 H          63.5092   83.2209   16.2751 H       1  UNL1        0.1781
     15 H          63.2866   81.0807   14.8189 H       1  UNL1        0.1509
     16 C          63.1215   80.9897   12.6602 C.3     1  UNL1        0.0731
     17 C          63.4654   81.7605   11.4202 C.3     1  UNL1        0.0196
     18 C          63.3309   81.1138   10.0735 C.3     1  UNL1        0.0017
     19 C          62.8524   79.6961    9.9668 C.3     1  UNL1        0.0001
     20 C          62.5084   78.9253   11.2067 C.3     1  UNL1        0.0017
     21 C          62.6430   79.5721   12.5534 C.3     1  UNL1        0.0196
     22 C          63.9189   91.2436   16.0099 C.3     1  UNL1        0.0476
     23 C          65.1995   91.9464   15.6688 C.3     1  UNL1        0.0944
     24 C          66.6516   92.3863   13.5598 C.2     1  UNL1        0.2652
     25 O          67.7583   91.5640   14.1504 O.2     1  UNL1       -0.2684
     26 N          65.3721   92.5775   14.3191 N.am    1  UNL1       -0.2992
     27 H          64.6457   93.1173   13.9315 H       1  UNL1        0.1498
     28 C          67.3422   94.9107    8.1607 C.3     1  UNL1        0.0538
     29 C          67.1695   94.2796    9.5105 C.ar    1  UNL1        0.0785
     30 C          67.7963   92.9484    9.8017 C.ar    1  UNL1        0.1137
     31 N          67.6237   92.3172   11.1515 N.ar    1  UNL1       -0.2364
     32 C          66.8242   93.0174   12.2101 C.ar    1  UNL1        0.1535
     33 C          66.1975   94.3487   11.9189 C.ar    1  UNL1        0.1221
     34 N          66.3701   94.9798   10.5691 N.ar    1  UNL1       -0.2448
@<TRIPOS>BOND
     1    28    29    1
     2    29    30   ar
     3    30    31   ar
     4    31    32   ar
     5    32    24    1
     6    24    25    2
     7    24    26   am
     8    26    23    1
     9    23    22    1
    10    22     1    1
    11     1     2   ar
    12     2     3   ar
    13     3     4   ar
    14     4     7    1
    15     7     8    2
    16     7     9    2
    17     7    10    1
    18    10    11   am
    19    11    12    2
    20    11    13   am
    21    13    16    1
    22    16    17    1
    23    17    18    1
    24    18    19    1
    25    19    20    1
    26    20    21    1
    27     4     5   ar
    28     5     6   ar
    29    32    33   ar
    30    33    34   ar
    31    34    29   ar
    32     6     1   ar
    33    21    16    1
    34    26    27    1
    35    10    14    1
    36    13    15    1
@<TRIPOS>MOLECULE
*****
 34 36 0 0 0
SMALL
GASTEIGER

@<TRIPOS>ATOM
      1 C          63.4514   86.9407   16.2867 C.ar    1  UNL1       -0.0204
      2 C          64.2978   87.0818   15.0564 C.ar    1  UNL1       -0.0028
      3 C          64.6863   88.4450   14.5656 C.ar    1  UNL1        0.0199
      4 C          64.2284   89.6670   15.3051 C.ar    1  UNL1        0.1253
      5 C          63.3819   89.5259   16.5355 C.ar    1  UNL1        0.0199
      6 C          62.9934   88.1628   17.0263 C.ar    1  UNL1       -0.0028
      7 S          64.6169   91.0302   14.8143 S.O2    1  UNL1        0.0768
      8 O          66.0639   90.6904   15.0159 O.2     1  UNL1       -0.1498
      9 O          63.1699   91.3700   14.6128 O.2     1  UNL1       -0.1498
     10 N          65.0054   92.3933   14.3236 N.am    1  UNL1       -0.1693
     11 C          65.5534   92.5635   12.9376 C.2     1  UNL1        0.3194
     12 O          65.7128   91.3705   12.0425 O.2     1  UNL1       -0.2512
     13 N          65.9418   93.9266   12.4468 N.am    1  UNL1       -0.2894
     14 H          64.9007   93.1764   14.9111 H       1  UNL1        0.1781
     15 H          65.8372   94.7096   13.0343 H       1  UNL1        0.1509
     16 C          66.4898   94.0968   11.0609 C.3     1  UNL1        0.0731
     17 C          67.3617   93.0326   10.4632 C.3     1  UNL1        0.0196
     18 C          67.9096   93.2027    9.0773 C.3     1  UNL1        0.0017
     19 C          67.5857   94.4372    8.2890 C.3     1  UNL1        0.0001
     20 C          66.7137   95.5014    8.8867 C.3     1  UNL1        0.0017
     21 C          66.1658   95.3311   10.2727 C.3     1  UNL1        0.0196
     22 C          63.0629   85.5775   16.7775 C.3     1  UNL1        0.0476
     23 C          62.2775   84.6569   15.8910 C.3     1  UNL1        0.0944
     24 C          63.1178   84.1101   13.4942 C.2     1  UNL1        0.2652
     25 O          64.0507   83.0789   14.0566 O.2     1  UNL1       -0.2684
     26 N          62.2312   84.8991   14.4114 N.am    1  UNL1       -0.2992
     27 H          61.6189   85.5759   14.0423 H       1  UNL1        0.1498
     28 C          62.9327   85.0787    7.5758 C.3     1  UNL1        0.0538
     29 C          62.9789   84.8366    9.0554 C.ar    1  UNL1        0.0785
     30 C          63.7684   83.6845    9.6025 C.ar    1  UNL1        0.1137
     31 N          63.8147   83.4423   11.0821 N.ar    1  UNL1       -0.2364
     32 C          63.0715   84.3522   12.0146 C.ar    1  UNL1        0.1535
     33 C          62.2820   85.5043   11.4675 C.ar    1  UNL1        0.1221
     34 N          62.2357   85.7465    9.9879 N.ar    1  UNL1       -0.2448
@<TRIPOS>BOND
     1    28    29    1
     2    29    30   ar
     3    30    31   ar
     4    31    32   ar
     5    32    24    1
     6    24    25    2
     7    24    26   am
     8    26    23    1
     9    23    22    1
    10    22     1    1
    11     1     2   ar
    12     2     3   ar
    13     3     4   ar
    14     4     7    1
    15     7     8    2
    16     7     9    2
    17     7    10    1
    18    10    11   am
    19    11    12    2
    20    11    13   am
    21    13    16    1
    22    16    17    1
    23    17    18    1
    24    18    19    1
    25    19    20    1
    26    20    21    1
    27     4     5   ar
    28     5     6   ar
    29    32    33   ar
    30    33    34   ar
    31    34    29   ar
    32     6     1   ar
    33    21    16    1
    34    26    27    1
    35    10    14    1
    36    13    15    1
@<TRIPOS>MOLECULE
*****
 34 36 0 0 0
SMALL
GASTEIGER

@<TRIPOS>ATOM
      1 C          60.1369   88.8240    8.5610 C.ar    1  UNL1       -0.0204
      2 C          59.9907   90.0546    9.4060 C.ar    1  UNL1       -0.0028
      3 C          60.7852   90.1948   10.6706 C.ar    1  UNL1        0.0199
      4 C          61.7259   89.1044   11.0901 C.ar    1  UNL1        0.1253
      5 C          61.8722   87.8737   10.2451 C.ar    1  UNL1        0.0199
      6 C          61.0777   87.7335    8.9806 C.ar    1  UNL1       -0.0028
      7 S          62.5204   89.2447   12.3547 S.O2    1  UNL1        0.0768
      8 O          61.9207   90.6008   12.5811 O.2     1  UNL1       -0.1498
      9 O          63.1202   87.8886   12.1283 O.2     1  UNL1       -0.1498
     10 N          63.3149   89.3849   13.6193 N.am    1  UNL1       -0.1693
     11 C          64.4618   90.3497   13.6813 C.2     1  UNL1        0.3194
     12 O          64.8142   91.1742   12.4788 O.2     1  UNL1       -0.2512
     13 N          65.2563   90.4900   14.9459 N.am    1  UNL1       -0.2894
     14 H          63.0836   88.8438   14.4085 H       1  UNL1        0.1781
     15 H          65.0250   89.9488   15.7351 H       1  UNL1        0.1509
     16 C          66.4032   91.4547   15.0080 C.3     1  UNL1        0.0731
     17 C          66.4248   92.5277   16.0560 C.3     1  UNL1        0.0196
     18 C          67.5717   93.4924   16.1181 C.3     1  UNL1        0.0017
     19 C          68.6970   93.3842   15.1321 C.3     1  UNL1        0.0001
     20 C          68.6754   92.3113   14.0841 C.3     1  UNL1        0.0017
     21 C          67.5285   91.3465   14.0221 C.3     1  UNL1        0.0196
     22 C          59.3424   88.6837    7.2965 C.3     1  UNL1        0.0476
     23 C          59.0049   89.8988    6.4841 C.3     1  UNL1        0.0944
     24 C          59.6393   91.6026    4.6282 C.2     1  UNL1        0.2652
     25 O          58.2394   92.1411    4.6442 O.2     1  UNL1       -0.2684
     26 N          60.0221   90.4814    5.5482 N.am    1  UNL1       -0.2992
     27 H          60.9409   90.1280    5.5377 H       1  UNL1        0.1498
     28 C          63.7077   93.9332    0.8844 C.3     1  UNL1        0.0538
     29 C          62.6906   93.3506    1.8204 C.ar    1  UNL1        0.0785
     30 C          63.0880   92.2695    2.7812 C.ar    1  UNL1        0.1137
     31 N          62.0709   91.6868    3.7171 N.ar    1  UNL1       -0.2364
     32 C          60.6564   92.1853    3.6923 C.ar    1  UNL1        0.1535
     33 C          60.2590   93.2664    2.7314 C.ar    1  UNL1        0.1221
     34 N          61.2761   93.8490    1.7955 N.ar    1  UNL1       -0.2448
@<TRIPOS>BOND
     1    28    29    1
     2    29    30   ar
     3    30    31   ar
     4    31    32   ar
     5    32    24    1
     6    24    25    2
     7    24    26   am
     8    26    23    1
     9    23    22    1
    10    22     1    1
    11     1     2   ar
    12     2     3   ar
    13     3     4   ar
    14     4     7    1
    15     7     8    2
    16     7     9    2
    17     7    10    1
    18    10    11   am
    19    11    12    2
    20    11    13   am
    21    13    16    1
    22    16    17    1
    23    17    18    1
    24    18    19    1
    25    19    20    1
    26    20    21    1
    27     4     5   ar
    28     5     6   ar
    29    32    33   ar
    30    33    34   ar
    31    34    29   ar
    32     6     1   ar
    33    21    16    1
    34    26    27    1
    35    10    14    1
    36    13    15    1
@<TRIPOS>MOLECULE
*****
 34 36 0 0 0
SMALL
GASTEIGER

@<TRIPOS>ATOM
      1 C          59.6739   91.4117    4.6829 C.ar    1  UNL1       -0.0204
      2 C          61.0942   90.9322    4.6288 C.ar    1  UNL1       -0.0028
      3 C          62.0490   91.5262    3.6360 C.ar    1  UNL1        0.0199
      4 C          61.5835   92.5997    2.6974 C.ar    1  UNL1        0.1253
      5 C          60.1632   93.0792    2.7515 C.ar    1  UNL1        0.0199
      6 C          59.2084   92.4852    3.7442 C.ar    1  UNL1       -0.0028
      7 S          62.5383   93.1937    1.7047 S.O2    1  UNL1        0.0768
      8 O          61.6267   94.3725    1.5333 O.2     1  UNL1       -0.1498
      9 O          63.4499   92.0149    1.8761 O.2     1  UNL1       -0.1498
     10 N          63.4931   93.7877    0.7120 N.am    1  UNL1       -0.1693
     11 C          63.2628   93.5956   -0.7578 C.2     1  UNL1        0.3194
     12 O          62.0778   92.8094   -1.2347 O.2     1  UNL1       -0.2512
     13 N          64.2176   94.1896   -1.7505 N.am    1  UNL1       -0.2894
     14 H          64.2710   94.3037    1.0251 H       1  UNL1        0.1781
     15 H          64.9954   94.7056   -1.4374 H       1  UNL1        0.1509
     16 C          63.9874   93.9974   -3.2202 C.3     1  UNL1        0.0731
     17 C          64.3081   92.6810   -3.8638 C.3     1  UNL1        0.0196
     18 C          64.0778   92.4889   -5.3335 C.3     1  UNL1        0.0017
     19 C          63.5268   93.6132   -6.1596 C.3     1  UNL1        0.0001
     20 C          63.2061   94.9296   -5.5160 C.3     1  UNL1        0.0017
     21 C          63.4364   95.1217   -4.0462 C.3     1  UNL1        0.0196
     22 C          58.7191   90.8176    5.6756 C.3     1  UNL1        0.0476
     23 C          59.1228   89.6165    6.4784 C.3     1  UNL1        0.0944
     24 C          60.2081   88.6425    8.6286 C.2     1  UNL1        0.2652
     25 O          59.4806   87.3491    8.4098 O.2     1  UNL1       -0.2684
     26 N          60.0292   89.7762    7.6629 N.am    1  UNL1       -0.2992
     27 H          60.5066   90.6251    7.8065 H       1  UNL1        0.1498
     28 C          63.8335   89.2812   13.3665 C.3     1  UNL1        0.0538
     29 C          62.9272   89.1215   12.1820 C.ar    1  UNL1        0.0785
     30 C          62.3972   90.3333   11.4745 C.ar    1  UNL1        0.1137
     31 N          61.4908   90.1736   10.2900 N.ar    1  UNL1       -0.2364
     32 C          61.1144   88.8022    9.8131 C.ar    1  UNL1        0.1535
     33 C          61.6444   87.5904   10.5206 C.ar    1  UNL1        0.1221
     34 N          62.5508   87.7501   11.7051 N.ar    1  UNL1       -0.2448
@<TRIPOS>BOND
     1    28    29    1
     2    29    30   ar
     3    30    31   ar
     4    31    32   ar
     5    32    24    1
     6    24    25    2
     7    24    26   am
     8    26    23    1
     9    23    22    1
    10    22     1    1
    11     1     2   ar
    12     2     3   ar
    13     3     4   ar
    14     4     7    1
    15     7     8    2
    16     7     9    2
    17     7    10    1
    18    10    11   am
    19    11    12    2
    20    11    13   am
    21    13    16    1
    22    16    17    1
    23    17    18    1
    24    18    19    1
    25    19    20    1
    26    20    21    1
    27     4     5   ar
    28     5     6   ar
    29    32    33   ar
    30    33    34   ar
    31    34    29   ar
    32     6     1   ar
    33    21    16    1
    34    26    27    1
    35    10    14    1
    36    13    15    1
@<TRIPOS>MOLECULE
*****
 34 36 0 0 0
SMALL
GASTEIGER

@<TRIPOS>ATOM
      1 C          64.8125   91.2240   14.6783 C.ar    1  UNL1       -0.0204
      2 C          64.2194   91.4101   13.3132 C.ar    1  UNL1       -0.0028
      3 C          63.6580   90.2328   12.5725 C.ar    1  UNL1        0.0199
      4 C          63.6897   88.8693   13.1968 C.ar    1  UNL1        0.1253
      5 C          64.2828   88.6831   14.5620 C.ar    1  UNL1        0.0199
      6 C          64.8442   89.8604   15.3027 C.ar    1  UNL1       -0.0028
      7 S          63.1284   87.6920   12.4560 S.O2    1  UNL1        0.0768
      8 O          63.7021   86.7683   13.4893 O.2     1  UNL1       -0.1498
      9 O          62.5546   88.6156   11.4228 O.2     1  UNL1       -0.1498
     10 N          62.5670   86.5146   11.7153 N.am    1  UNL1       -0.1693
     11 C          62.7399   85.1301   12.2660 C.2     1  UNL1        0.3194
     12 O          63.4742   84.9230   13.5575 O.2     1  UNL1       -0.2512
     13 N          62.1785   83.9527   11.5253 N.am    1  UNL1       -0.2894
     14 H          62.0851   86.6506   10.8676 H       1  UNL1        0.1781
     15 H          61.6966   84.0887   10.6776 H       1  UNL1        0.1509
     16 C          62.3514   82.5683   12.0760 C.3     1  UNL1        0.0731
     17 C          62.9289   81.4850   11.2140 C.3     1  UNL1        0.0196
     18 C          63.1018   80.1005   11.7647 C.3     1  UNL1        0.0017
     19 C          62.6972   79.7993   13.1774 C.3     1  UNL1        0.0001
     20 C          62.1197   80.8826   14.0394 C.3     1  UNL1        0.0017
     21 C          61.9468   82.2671   13.4886 C.3     1  UNL1        0.0196
     22 C          65.3738   92.4013   15.4191 C.3     1  UNL1        0.0476
     23 C          66.5627   93.1343   14.8718 C.3     1  UNL1        0.0944
     24 C          66.9265   93.4746   12.3220 C.2     1  UNL1        0.2652
     25 O          67.5735   92.1242   12.2342 O.2     1  UNL1       -0.2684
     26 N          66.4211   93.9796   13.6408 N.am    1  UNL1       -0.2992
     27 H          65.9965   94.8660   13.6985 H       1  UNL1        0.1498
     28 C          66.3603   96.8558    7.3979 C.3     1  UNL1        0.0538
     29 C          66.5018   96.0105    8.6290 C.ar    1  UNL1        0.0785
     30 C          67.3886   94.8009    8.6102 C.ar    1  UNL1        0.1137
     31 N          67.5302   93.9556    9.8412 N.ar    1  UNL1       -0.2364
     32 C          66.7850   94.3199   11.0910 C.ar    1  UNL1        0.1535
     33 C          65.8982   95.5295   11.1097 C.ar    1  UNL1        0.1221
     34 N          65.7566   96.3748    9.8787 N.ar    1  UNL1       -0.2448
@<TRIPOS>BOND
     1    28    29    1
     2    29    30   ar
     3    30    31   ar
     4    31    32   ar
     5    32    24    1
     6    24    25    2
     7    24    26   am
     8    26    23    1
     9    23    22    1
    10    22     1    1
    11     1     2   ar
    12     2     3   ar
    13     3     4   ar
    14     4     7    1
    15     7     8    2
    16     7     9    2
    17     7    10    1
    18    10    11   am
    19    11    12    2
    20    11    13   am
    21    13    16    1
    22    16    17    1
    23    17    18    1
    24    18    19    1
    25    19    20    1
    26    20    21    1
    27     4     5   ar
    28     5     6   ar
    29    32    33   ar
    30    33    34   ar
    31    34    29   ar
    32     6     1   ar
    33    21    16    1
    34    26    27    1
    35    10    14    1
    36    13    15    1
@<TRIPOS>MOLECULE
*****
 34 36 0 0 0
SMALL
GASTEIGER

@<TRIPOS>ATOM
      1 C          63.9656   89.3006   13.8576 C.ar    1  UNL1       -0.0204
      2 C          63.1589   90.3893   13.2144 C.ar    1  UNL1       -0.0028
      3 C          62.2561   90.0712   12.0595 C.ar    1  UNL1        0.0199
      4 C          62.1600   88.6645   11.5479 C.ar    1  UNL1        0.1253
      5 C          62.9667   87.5757   12.1912 C.ar    1  UNL1        0.0199
      6 C          63.8696   87.8937   13.3461 C.ar    1  UNL1       -0.0028
      7 S          61.2571   88.3464   10.3930 S.O2    1  UNL1        0.0768
      8 O          60.0719   88.7930   11.1967 O.2     1  UNL1       -0.1498
      9 O          62.4424   87.8999    9.5894 O.2     1  UNL1       -0.1498
     10 N          60.3543   88.0284    9.2382 N.am    1  UNL1       -0.1693
     11 C          59.9854   89.1013    8.2569 C.2     1  UNL1        0.3194
     12 O          60.5193   90.4922    8.4306 O.2     1  UNL1       -0.2512
     13 N          59.0825   88.7833    7.1021 N.am    1  UNL1       -0.2894
     14 H          60.0038   87.1154    9.1242 H       1  UNL1        0.1781
     15 H          58.7321   87.8703    6.9881 H       1  UNL1        0.1509
     16 C          58.7137   89.8561    6.1208 C.3     1  UNL1        0.0731
     17 C          59.7863   90.5779    5.3602 C.3     1  UNL1        0.0196
     18 C          59.4174   91.6507    4.3790 C.3     1  UNL1        0.0017
     19 C          57.9758   92.0019    4.1584 C.3     1  UNL1        0.0001
     20 C          56.9032   91.2802    4.9190 C.3     1  UNL1        0.0017
     21 C          57.2721   90.2073    5.9003 C.3     1  UNL1        0.0196
     22 C          64.8685   89.6186   15.0125 C.3     1  UNL1        0.0476
     23 C          65.8235   90.7719   14.9224 C.3     1  UNL1        0.0944
     24 C          66.2190   92.9029   13.4898 C.2     1  UNL1        0.2652
     25 O          66.0525   93.7557   14.7125 O.2     1  UNL1       -0.2684
     26 N          66.1045   91.4110   13.5948 N.am    1  UNL1       -0.2992
     27 H          66.2138   90.8512   12.7923 H       1  UNL1        0.1498
     28 C          67.3431   95.4593    8.1794 C.3     1  UNL1        0.0538
     29 C          67.0621   94.8202    9.5070 C.ar    1  UNL1        0.0785
     30 C          66.5488   95.6509   10.6456 C.ar    1  UNL1        0.1137
     31 N          66.2678   95.0118   11.9732 N.ar    1  UNL1       -0.2364
     32 C          66.5000   93.5420   12.1622 C.ar    1  UNL1        0.1535
     33 C          67.0133   92.7113   11.0236 C.ar    1  UNL1        0.1221
     34 N          67.2943   93.3504    9.6960 N.ar    1  UNL1       -0.2448
@<TRIPOS>BOND
     1    28    29    1
     2    29    30   ar
     3    30    31   ar
     4    31    32   ar
     5    32    24    1
     6    24    25    2
     7    24    26   am
     8    26    23    1
     9    23    22    1
    10    22     1    1
    11     1     2   ar
    12     2     3   ar
    13     3     4   ar
    14     4     7    1
    15     7     8    2
    16     7     9    2
    17     7    10    1
    18    10    11   am
    19    11    12    2
    20    11    13   am
    21    13    16    1
    22    16    17    1
    23    17    18    1
    24    18    19    1
    25    19    20    1
    26    20    21    1
    27     4     5   ar
    28     5     6   ar
    29    32    33   ar
    30    33    34   ar
    31    34    29   ar
    32     6     1   ar
    33    21    16    1
    34    26    27    1
    35    10    14    1
    36    13    15    1
@<TRIPOS>MOLECULE
*****
 34 36 0 0 0
SMALL
GASTEIGER

@<TRIPOS>ATOM
      1 C          65.1397   91.7606   14.5160 C.ar    1  UNL1       -0.0204
      2 C          64.9069   91.9807   13.0507 C.ar    1  UNL1       -0.0028
      3 C          63.9232   91.1236   12.3105 C.ar    1  UNL1        0.0199
      4 C          63.1724   90.0465   13.0357 C.ar    1  UNL1        0.1253
      5 C          63.4052   89.8263   14.5011 C.ar    1  UNL1        0.0199
      6 C          64.3888   90.6834   15.2413 C.ar    1  UNL1       -0.0028
      7 S          62.1887   89.1894   12.2955 S.O2    1  UNL1        0.0768
      8 O          62.9774   87.9674   12.6625 O.2     1  UNL1       -0.1498
      9 O          61.4001   90.4114   11.9285 O.2     1  UNL1       -0.1498
     10 N          61.2051   88.3323   11.5553 N.am    1  UNL1       -0.1693
     11 C          61.6441   87.5595   10.3469 C.2     1  UNL1        0.3194
     12 O          63.0666   87.6438    9.8787 O.2     1  UNL1       -0.2512
     13 N          60.6604   86.7025    9.6067 N.am    1  UNL1       -0.2894
     14 H          60.2714   88.2770   11.8626 H       1  UNL1        0.1781
     15 H          59.7267   86.6471    9.9140 H       1  UNL1        0.1509
     16 C          61.0993   85.9297    8.3984 C.3     1  UNL1        0.0731
     17 C          60.1098   85.5954    7.3217 C.3     1  UNL1        0.0196
     18 C          60.5487   84.8226    6.1134 C.3     1  UNL1        0.0017
     19 C          61.9771   84.3841    5.9816 C.3     1  UNL1        0.0001
     20 C          62.9666   84.7185    7.0582 C.3     1  UNL1        0.0017
     21 C          62.5277   85.4913    8.2666 C.3     1  UNL1        0.0196
     22 C          66.1233   92.6177   15.2562 C.3     1  UNL1        0.0476
     23 C          67.1858   93.3617   14.5027 C.3     1  UNL1        0.0944
     24 C          67.1747   93.6531   11.9210 C.2     1  UNL1        0.2652
     25 O          67.8910   92.3438   11.7703 O.2     1  UNL1       -0.2684
     26 N          66.8221   94.1620   13.2873 N.am    1  UNL1       -0.2992
     27 H          66.3520   95.0214   13.3862 H       1  UNL1        0.1498
     28 C          65.7202   96.8543    7.0593 C.3     1  UNL1        0.0538
     29 C          66.0839   96.0540    8.2747 C.ar    1  UNL1        0.0785
     30 C          65.3861   96.3100    9.5776 C.ar    1  UNL1        0.1137
     31 N          65.7498   95.5097   10.7931 N.ar    1  UNL1       -0.2364
     32 C          66.8111   94.4534   10.7056 C.ar    1  UNL1        0.1535
     33 C          67.5089   94.1974    9.4027 C.ar    1  UNL1        0.1221
     34 N          67.1452   94.9977    8.1873 N.ar    1  UNL1       -0.2448
@<TRIPOS>BOND
     1    28    29    1
     2    29    30   ar
     3    30    31   ar
     4    31    32   ar
     5    32    24    1
     6    24    25    2
     7    24    26   am
     8    26    23    1
     9    23    22    1
    10    22     1    1
    11     1     2   ar
    12     2     3   ar
    13     3     4   ar
    14     4     7    1
    15     7     8    2
    16     7     9    2
    17     7    10    1
    18    10    11   am
    19    11    12    2
    20    11    13   am
    21    13    16    1
    22    16    17    1
    23    17    18    1
    24    18    19    1
    25    19    20    1
    26    20    21    1
    27     4     5   ar
    28     5     6   ar
    29    32    33   ar
    30    33    34   ar
    31    34    29   ar
    32     6     1   ar
    33    21    16    1
    34    26    27    1
    35    10    14    1
    36    13    15    1
@<TRIPOS>MOLECULE
*****
 34 36 0 0 0
SMALL
GASTEIGER

@<TRIPOS>ATOM
      1 C          59.3323   90.7558    5.5296 C.ar    1  UNL1       -0.0204
      2 C          60.7871   90.6255    5.1882 C.ar    1  UNL1       -0.0028
      3 C          61.3856   91.4859    4.1150 C.ar    1  UNL1        0.0199
      4 C          60.5292   92.4765    3.3833 C.ar    1  UNL1        0.1253
      5 C          59.0744   92.6067    3.7248 C.ar    1  UNL1        0.0199
      6 C          58.4759   91.7464    4.7979 C.ar    1  UNL1       -0.0028
      7 S          61.1277   93.3368    2.3102 S.O2    1  UNL1        0.0768
      8 O          60.0518   94.3588    2.5295 O.2     1  UNL1       -0.1498
      9 O          62.2035   92.3148    2.0908 O.2     1  UNL1       -0.1498
     10 N          61.7261   94.1971    1.2370 N.am    1  UNL1       -0.1693
     11 C          61.2117   94.1084   -0.1693 C.2     1  UNL1        0.3194
     12 O          60.0989   93.1594   -0.5024 O.2     1  UNL1       -0.2512
     13 N          61.8101   94.9688   -1.2425 N.am    1  UNL1       -0.2894
     14 H          62.4565   94.8200    1.4556 H       1  UNL1        0.1781
     15 H          62.5405   95.5917   -1.0238 H       1  UNL1        0.1509
     16 C          61.2958   94.8801   -2.6487 C.3     1  UNL1        0.0731
     17 C          62.1619   94.3036   -3.7292 C.3     1  UNL1        0.0196
     18 C          61.6475   94.2150   -5.1354 C.3     1  UNL1        0.0017
     19 C          60.2670   94.7028   -5.4612 C.3     1  UNL1        0.0001
     20 C          59.4008   95.2793   -4.3807 C.3     1  UNL1        0.0017
     21 C          59.9153   95.3680   -2.9744 C.3     1  UNL1        0.0196
     22 C          58.7339   89.8954    6.6028 C.3     1  UNL1        0.0476
     23 C          59.1720   88.4685    6.7515 C.3     1  UNL1        0.0944
     24 C          60.3293   86.6057    8.1445 C.2     1  UNL1        0.2652
     25 O          59.9209   85.5872    7.1217 O.2     1  UNL1       -0.2684
     26 N          59.9548   88.0463    7.9593 N.am    1  UNL1       -0.2992
     27 H          60.2228   88.7147    8.6306 H       1  UNL1        0.1498
     28 C          63.4604   84.9168   12.9760 C.3     1  UNL1        0.0538
     29 C          62.6776   85.3390   11.7681 C.ar    1  UNL1        0.0785
     30 C          62.9794   84.7333   10.4295 C.ar    1  UNL1        0.1137
     31 N          62.1966   85.1555    9.2216 N.ar    1  UNL1       -0.2364
     32 C          61.1121   86.1834    9.3524 C.ar    1  UNL1        0.1535
     33 C          60.8103   86.7892   10.6910 C.ar    1  UNL1        0.1221
     34 N          61.5931   86.3669   11.8989 N.ar    1  UNL1       -0.2448
@<TRIPOS>BOND
     1    28    29    1
     2    29    30   ar
     3    30    31   ar
     4    31    32   ar
     5    32    24    1
     6    24    25    2
     7    24    26   am
     8    26    23    1
     9    23    22    1
    10    22     1    1
    11     1     2   ar
    12     2     3   ar
    13     3     4   ar
    14     4     7    1
    15     7     8    2
    16     7     9    2
    17     7    10    1
    18    10    11   am
    19    11    12    2
    20    11    13   am
    21    13    16    1
    22    16    17    1
    23    17    18    1
    24    18    19    1
    25    19    20    1
    26    20    21    1
    27     4     5   ar
    28     5     6   ar
    29    32    33   ar
    30    33    34   ar
    31    34    29   ar
    32     6     1   ar
    33    21    16    1
    34    26    27    1
    35    10    14    1
    36    13    15    1
