@<TRIPOS>MOLECULE
*****
 32 34 0 0 0
SMALL
GASTEIGER

@<TRIPOS>ATOM
      1 C          64.6750   91.9608   11.5587 C.ar    1  UNL1        0.0533
      2 C          63.7601   91.6272   10.4178 C.ar    1  UNL1        0.0076
      3 C          62.6989   90.5808   10.5887 C.ar    1  UNL1        0.0367
      4 C          62.5528   89.8681   11.9004 C.ar    1  UNL1        0.1355
      5 C          63.4678   90.2017   13.0413 C.ar    1  UNL1        0.0232
      6 C          64.5288   91.2481   12.8704 C.ar    1  UNL1        0.0041
      7 N          65.6087   94.0341   10.3018 N.am    1  UNL1       -0.3009
      8 C          65.7361   93.0071   11.3878 C.2     1  UNL1        0.2458
      9 O          66.9245   93.0266   12.3028 O.2     1  UNL1       -0.2701
     10 H          64.8288   94.0213    9.7013 H       1  UNL1        0.1497
     11 C          66.6699   95.0804   10.1310 C.3     1  UNL1        0.0897
     12 C          67.7192   94.9185    9.0713 C.3     1  UNL1        0.0213
     13 C          68.7865   92.5638    9.3292 C.3     1  UNL1        0.0001
     14 C          68.0167   93.5588    8.5122 C.3     1  UNL1        0.0017
     15 O          61.4917   88.8217   12.0713 O.3     1  UNL1       -0.4717
     16 C          61.1023   87.9521   10.9127 C.3     1  UNL1        0.2525
     17 C          63.3216   89.4890   14.3531 C.3     1  UNL1        0.0943
     18 S          64.2438   88.3576   14.6987 S.3     1  UNL1       -0.0724
     19 C          63.8626   86.9479   14.3561 C.ar    1  UNL1        0.1719
     20 N          63.6838   86.3941   12.9736 N.ar    1  UNL1       -0.2210
     21 C          63.3039   84.9484   13.0989 C.ar    1  UNL1        0.1014
     22 C          63.0018   83.8974   12.0722 C.ar    1  UNL1        0.0503
     23 C          62.6437   82.5068   12.5054 C.ar    1  UNL1        0.1417
     24 F          62.3415   81.4557   11.4787 F       1  UNL1       -0.2041
     25 C          62.5878   82.1670   13.9654 C.ar    1  UNL1        0.0312
     26 C          62.8900   83.2180   14.9921 C.ar    1  UNL1        0.0211
     27 C          63.2481   84.6087   14.5588 C.ar    1  UNL1        0.0797
     28 N          63.5933   85.8444   15.3358 N.ar    1  UNL1       -0.3011
     29 C          63.6580   85.9569   16.8302 C.3     1  UNL1        0.1496
     30 C          62.4441   86.3787   17.6038 C.2     1  UNL1        0.0733
     31 O          62.5921   86.9218   18.9942 O.co2   1  UNL1       -0.5472
     32 O          61.0821   86.2575   16.9871 O.co2   1  UNL1       -0.5472
@<TRIPOS>UNITY_ATOM_ATTR
31 1
charge -1
@<TRIPOS>BOND
     1    13    14    1
     2    14    12    1
     3    12    11    1
     4    11     7    1
     5     7     8   am
     6     8     9    2
     7     8     1    1
     8     1     2   ar
     9     2     3   ar
    10     3     4   ar
    11     4    15    1
    12    15    16    1
    13     4     5   ar
    14     5    17    1
    15    17    18    1
    16    18    19    1
    17    19    20   ar
    18    20    21   ar
    19    21    22   ar
    20    22    23   ar
    21    23    24    1
    22    23    25   ar
    23    25    26   ar
    24    26    27   ar
    25    27    28   ar
    26    28    29    1
    27    29    30    1
    28    30    31   ar
    29    30    32   ar
    30     5     6   ar
    31     6     1   ar
    32    28    19   ar
    33    27    21   ar
    34     7    10    1
@<TRIPOS>MOLECULE
*****
 32 34 0 0 0
SMALL
GASTEIGER

@<TRIPOS>ATOM
      1 C          62.0648   86.4318   11.0802 C.ar    1  UNL1        0.0533
      2 C          61.2120   85.9470    9.9455 C.ar    1  UNL1        0.0076
      3 C          60.5560   86.9337    9.0256 C.ar    1  UNL1        0.0367
      4 C          60.7529   88.4051    9.2404 C.ar    1  UNL1        0.1355
      5 C          61.6058   88.8899   10.3752 C.ar    1  UNL1        0.0232
      6 C          62.2617   87.9032   11.2951 C.ar    1  UNL1        0.0041
      7 N          62.8242   84.0026   11.6020 N.am    1  UNL1       -0.3009
      8 C          62.7208   85.4451   12.0000 C.2     1  UNL1        0.2458
      9 O          63.2734   85.9009   13.3180 O.2     1  UNL1       -0.2701
     10 H          62.4615   83.7034   10.7370 H       1  UNL1        0.1497
     11 C          63.4802   83.0159   12.5219 C.3     1  UNL1        0.0897
     12 C          63.3292   81.5442   12.2740 C.3     1  UNL1        0.0213
     13 C          61.5219   81.4060   14.1353 C.3     1  UNL1        0.0001
     14 C          62.4139   80.7282   13.1379 C.3     1  UNL1        0.0017
     15 O          60.0969   89.3918    8.3206 O.3     1  UNL1       -0.4717
     16 C          59.3316   88.9082    7.1245 C.3     1  UNL1        0.2525
     17 C          61.8027   90.3613   10.5901 C.3     1  UNL1        0.0943
     18 S          63.1440   90.9832   10.3375 S.3     1  UNL1       -0.0724
     19 C          63.9923   91.4311   11.4907 C.ar    1  UNL1        0.1719
     20 N          63.8879   90.9411   12.9046 N.ar    1  UNL1       -0.2210
     21 C          64.9249   91.6548   13.7203 C.ar    1  UNL1        0.1014
     22 C          65.2868   91.5771   15.1738 C.ar    1  UNL1        0.0503
     23 C          66.3940   92.4305   15.7177 C.ar    1  UNL1        0.1417
     24 F          66.7560   92.3528   17.1713 F       1  UNL1       -0.2041
     25 C          67.1393   93.3615   14.8079 C.ar    1  UNL1        0.0312
     26 C          66.7774   93.4392   13.3543 C.ar    1  UNL1        0.0211
     27 C          65.6702   92.5858   12.8105 C.ar    1  UNL1        0.0797
     28 N          65.0938   92.4476   11.4326 N.ar    1  UNL1       -0.3011
     29 C          65.5405   93.1947   10.2110 C.3     1  UNL1        0.1496
     30 C          67.0039   93.3630    9.9281 C.2     1  UNL1        0.0733
     31 O          67.6232   94.7287    9.9677 O.co2   1  UNL1       -0.5472
     32 O          67.8481   92.1658    9.6056 O.co2   1  UNL1       -0.5472
@<TRIPOS>UNITY_ATOM_ATTR
31 1
charge -1
@<TRIPOS>BOND
     1    13    14    1
     2    14    12    1
     3    12    11    1
     4    11     7    1
     5     7     8   am
     6     8     9    2
     7     8     1    1
     8     1     2   ar
     9     2     3   ar
    10     3     4   ar
    11     4    15    1
    12    15    16    1
    13     4     5   ar
    14     5    17    1
    15    17    18    1
    16    18    19    1
    17    19    20   ar
    18    20    21   ar
    19    21    22   ar
    20    22    23   ar
    21    23    24    1
    22    23    25   ar
    23    25    26   ar
    24    26    27   ar
    25    27    28   ar
    26    28    29    1
    27    29    30    1
    28    30    31   ar
    29    30    32   ar
    30     5     6   ar
    31     6     1   ar
    32    28    19   ar
    33    27    21   ar
    34     7    10    1
@<TRIPOS>MOLECULE
*****
 32 34 0 0 0
SMALL
GASTEIGER

@<TRIPOS>ATOM
      1 C          62.1534   89.5262   10.6017 C.ar    1  UNL1        0.0533
      2 C          62.8381   90.7471   10.0626 C.ar    1  UNL1        0.0076
      3 C          63.7276   91.5629   10.9532 C.ar    1  UNL1        0.0367
      4 C          63.9325   91.1579   12.3828 C.ar    1  UNL1        0.1355
      5 C          63.2477   89.9369   12.9219 C.ar    1  UNL1        0.0232
      6 C          62.3582   89.1211   12.0313 C.ar    1  UNL1        0.0041
      7 N          61.2583   87.2147    9.8236 N.am    1  UNL1       -0.3009
      8 C          61.2639   88.7104    9.7111 C.2     1  UNL1        0.2458
      9 O          60.3798   89.3904    8.7079 O.2     1  UNL1       -0.2701
     10 H          61.8385   86.7684   10.4819 H       1  UNL1        0.1497
     11 C          60.3687   86.3989    8.9329 C.3     1  UNL1        0.0897
     12 C          60.8505   85.9746    7.5772 C.3     1  UNL1        0.0213
     13 C          62.4099   84.4423    6.1736 C.3     1  UNL1        0.0001
     14 C          62.1166   85.1811    7.4456 C.3     1  UNL1        0.0017
     15 O          64.8220   91.9737   13.2734 O.3     1  UNL1       -0.4717
     16 C          66.3079   91.7715   13.2377 C.3     1  UNL1        0.2525
     17 C          63.4526   89.5319   14.3516 C.3     1  UNL1        0.0943
     18 S          64.3594   88.3840   14.6833 S.3     1  UNL1       -0.0724
     19 C          63.9392   86.9798   14.3643 C.ar    1  UNL1        0.1719
     20 N          63.7516   86.4060   12.9912 N.ar    1  UNL1       -0.2210
     21 C          63.3294   84.9745   13.1406 C.ar    1  UNL1        0.1014
     22 C          63.0022   83.9140   12.1316 C.ar    1  UNL1        0.0503
     23 C          62.6017   82.5424   12.5881 C.ar    1  UNL1        0.1417
     24 F          62.2745   81.4818   11.5791 F       1  UNL1       -0.2041
     25 C          62.5283   82.2314   14.0537 C.ar    1  UNL1        0.0312
     26 C          62.8555   83.2920   15.0627 C.ar    1  UNL1        0.0211
     27 C          63.2560   84.6635   14.6062 C.ar    1  UNL1        0.0797
     28 N          63.6329   85.9028   15.3625 N.ar    1  UNL1       -0.3011
     29 C          63.6930   86.0410   16.8549 C.3     1  UNL1        0.1496
     30 C          62.4575   86.4018   17.6251 C.2     1  UNL1        0.0733
     31 O          61.1043   86.1958   17.0115 O.co2   1  UNL1       -0.5472
     32 O          62.5751   86.9687   19.0088 O.co2   1  UNL1       -0.5472
@<TRIPOS>UNITY_ATOM_ATTR
31 1
charge -1
@<TRIPOS>BOND
     1    13    14    1
     2    14    12    1
     3    12    11    1
     4    11     7    1
     5     7     8   am
     6     8     9    2
     7     8     1    1
     8     1     2   ar
     9     2     3   ar
    10     3     4   ar
    11     4    15    1
    12    15    16    1
    13     4     5   ar
    14     5    17    1
    15    17    18    1
    16    18    19    1
    17    19    20   ar
    18    20    21   ar
    19    21    22   ar
    20    22    23   ar
    21    23    24    1
    22    23    25   ar
    23    25    26   ar
    24    26    27   ar
    25    27    28   ar
    26    28    29    1
    27    29    30    1
    28    30    31   ar
    29    30    32   ar
    30     5     6   ar
    31     6     1   ar
    32    28    19   ar
    33    27    21   ar
    34     7    10    1
@<TRIPOS>MOLECULE
*****
 32 34 0 0 0
SMALL
GASTEIGER

@<TRIPOS>ATOM
      1 C          62.1591   89.6330   10.5216 C.ar    1  UNL1        0.0533
      2 C          62.8703   90.8682   10.0542 C.ar    1  UNL1        0.0076
      3 C          63.7518   91.6292   10.9996 C.ar    1  UNL1        0.0367
      4 C          63.9221   91.1551   12.4125 C.ar    1  UNL1        0.1355
      5 C          63.2108   89.9199   12.8799 C.ar    1  UNL1        0.0232
      6 C          62.3293   89.1589   11.9345 C.ar    1  UNL1        0.0041
      7 N          60.4896   89.6047    8.5312 N.am    1  UNL1       -0.3009
      8 C          61.2776   88.8720    9.5762 C.2     1  UNL1        0.2458
      9 O          61.1842   87.3782    9.6759 O.2     1  UNL1       -0.2701
     10 H          60.5509   90.5852    8.4658 H       1  UNL1        0.1497
     11 C          59.6081   88.8436    7.5857 C.3     1  UNL1        0.0897
     12 C          58.8178   89.5766    6.5426 C.3     1  UNL1        0.0213
     13 C          58.7216   91.5578    4.8646 C.3     1  UNL1        0.0001
     14 C          59.5103   90.5137    5.5980 C.3     1  UNL1        0.0017
     15 O          64.8035   91.9161   13.3579 O.3     1  UNL1       -0.4717
     16 C          66.0670   92.5518   12.8582 C.3     1  UNL1        0.2525
     17 C          63.3810   89.4458   14.2928 C.3     1  UNL1        0.0943
     18 S          64.3147   88.3117   14.5960 S.3     1  UNL1       -0.0724
     19 C          63.9038   86.9009   14.2947 C.ar    1  UNL1        0.1719
     20 N          63.7184   86.3091   12.9288 N.ar    1  UNL1       -0.2210
     21 C          63.3061   84.8766   13.0963 C.ar    1  UNL1        0.1014
     22 C          62.9850   83.8017   12.1007 C.ar    1  UNL1        0.0503
     23 C          62.5944   82.4331   12.5744 C.ar    1  UNL1        0.1417
     24 F          62.2732   81.3581   11.5788 F       1  UNL1       -0.2041
     25 C          62.5250   82.1395   14.0438 C.ar    1  UNL1        0.0312
     26 C          62.8462   83.2145   15.0394 C.ar    1  UNL1        0.0211
     27 C          63.2367   84.5830   14.5656 C.ar    1  UNL1        0.0797
     28 N          63.6061   85.8341   15.3062 N.ar    1  UNL1       -0.3011
     29 C          63.6671   85.9908   16.7968 C.3     1  UNL1        0.1496
     30 C          62.4409   86.3976   17.5590 C.2     1  UNL1        0.0733
     31 O          62.5708   86.9616   18.9429 O.co2   1  UNL1       -0.5472
     32 O          61.0848   86.2404   16.9374 O.co2   1  UNL1       -0.5472
@<TRIPOS>UNITY_ATOM_ATTR
31 1
charge -1
@<TRIPOS>BOND
     1    13    14    1
     2    14    12    1
     3    12    11    1
     4    11     7    1
     5     7     8   am
     6     8     9    2
     7     8     1    1
     8     1     2   ar
     9     2     3   ar
    10     3     4   ar
    11     4    15    1
    12    15    16    1
    13     4     5   ar
    14     5    17    1
    15    17    18    1
    16    18    19    1
    17    19    20   ar
    18    20    21   ar
    19    21    22   ar
    20    22    23   ar
    21    23    24    1
    22    23    25   ar
    23    25    26   ar
    24    26    27   ar
    25    27    28   ar
    26    28    29    1
    27    29    30    1
    28    30    31   ar
    29    30    32   ar
    30     5     6   ar
    31     6     1   ar
    32    28    19   ar
    33    27    21   ar
    34     7    10    1
@<TRIPOS>MOLECULE
*****
 32 34 0 0 0
SMALL
GASTEIGER

@<TRIPOS>ATOM
      1 C          62.2850   85.4386   10.0580 C.ar    1  UNL1        0.0533
      2 C          61.6217   85.3953    8.7133 C.ar    1  UNL1        0.0076
      3 C          60.8690   86.5911    8.2095 C.ar    1  UNL1        0.0367
      4 C          60.7796   87.8300    9.0503 C.ar    1  UNL1        0.1355
      5 C          61.4430   87.8732   10.3950 C.ar    1  UNL1        0.0232
      6 C          62.1956   86.6776   10.8988 C.ar    1  UNL1        0.0041
      7 N          62.7835   83.7256   11.9466 N.am    1  UNL1       -0.3009
      8 C          63.0376   84.2430   10.5618 C.2     1  UNL1        0.2458
      9 O          64.0445   83.5646    9.6807 O.2     1  UNL1       -0.2701
     10 H          62.1227   84.1708   12.5249 H       1  UNL1        0.1497
     11 C          63.5362   82.5299   12.4504 C.3     1  UNL1        0.0897
     12 C          62.9648   81.1544   12.2726 C.3     1  UNL1        0.0213
     13 C          61.1120   81.0466   14.0907 C.3     1  UNL1        0.0001
     14 C          62.3225   80.4534   13.4328 C.3     1  UNL1        0.0017
     15 O          60.0270   89.0257    8.5465 O.3     1  UNL1       -0.4717
     16 C          59.3926   88.9946    7.1875 C.3     1  UNL1        0.2525
     17 C          61.3536   89.1122   11.2359 C.3     1  UNL1        0.0943
     18 S          62.3140   89.3204   12.3691 S.3     1  UNL1       -0.0724
     19 C          63.3370   90.4148   12.2938 C.ar    1  UNL1        0.1719
     20 N          63.5675   91.3274   11.1259 N.ar    1  UNL1       -0.2210
     21 C          64.6821   92.2655   11.4834 C.ar    1  UNL1        0.1014
     22 C          65.3388   93.3797   10.7237 C.ar    1  UNL1        0.0503
     23 C          66.4539   94.1610   11.3530 C.ar    1  UNL1        0.1417
     24 F          67.1107   95.2753   10.5933 F       1  UNL1       -0.2041
     25 C          66.9123   93.8282   12.7419 C.ar    1  UNL1        0.0312
     26 C          66.2555   92.7140   13.5016 C.ar    1  UNL1        0.0211
     27 C          65.1404   91.9326   12.8723 C.ar    1  UNL1        0.0797
     28 N          64.3091   90.7889   13.3731 N.ar    1  UNL1       -0.3011
     29 C          64.4290   90.1341   14.7174 C.3     1  UNL1        0.1496
     30 C          63.4331   90.4457   15.7949 C.2     1  UNL1        0.0733
     31 O          62.3588   89.4548   16.1326 O.co2   1  UNL1       -0.5472
     32 O          63.5114   91.7482   16.5347 O.co2   1  UNL1       -0.5472
@<TRIPOS>UNITY_ATOM_ATTR
31 1
charge -1
@<TRIPOS>BOND
     1    13    14    1
     2    14    12    1
     3    12    11    1
     4    11     7    1
     5     7     8   am
     6     8     9    2
     7     8     1    1
     8     1     2   ar
     9     2     3   ar
    10     3     4   ar
    11     4    15    1
    12    15    16    1
    13     4     5   ar
    14     5    17    1
    15    17    18    1
    16    18    19    1
    17    19    20   ar
    18    20    21   ar
    19    21    22   ar
    20    22    23   ar
    21    23    24    1
    22    23    25   ar
    23    25    26   ar
    24    26    27   ar
    25    27    28   ar
    26    28    29    1
    27    29    30    1
    28    30    31   ar
    29    30    32   ar
    30     5     6   ar
    31     6     1   ar
    32    28    19   ar
    33    27    21   ar
    34     7    10    1
@<TRIPOS>MOLECULE
*****
 32 34 0 0 0
SMALL
GASTEIGER

@<TRIPOS>ATOM
      1 C          63.7715   90.4151   14.5170 C.ar    1  UNL1        0.0533
      2 C          64.8144   91.4811   14.3556 C.ar    1  UNL1        0.0076
      3 C          65.1270   92.0244   12.9928 C.ar    1  UNL1        0.0367
      4 C          64.3967   91.5016   11.7914 C.ar    1  UNL1        0.1355
      5 C          63.3538   90.4356   11.9528 C.ar    1  UNL1        0.0232
      6 C          63.0412   89.8924   13.3156 C.ar    1  UNL1        0.0041
      7 N          63.2491   88.3989   16.0700 N.am    1  UNL1       -0.3009
      8 C          63.4589   89.8719   15.8797 C.2     1  UNL1        0.2458
      9 O          63.3561   90.8017   17.0524 O.2     1  UNL1       -0.2701
     10 H          63.3165   87.7886   15.3004 H       1  UNL1        0.1497
     11 C          62.9364   87.8557   17.4328 C.3     1  UNL1        0.0897
     12 C          62.8345   86.3742   17.6444 C.3     1  UNL1        0.0213
     13 C          62.2800   84.5485   15.8811 C.3     1  UNL1        0.0001
     14 C          63.2807   85.4303   16.5674 C.3     1  UNL1        0.0017
     15 O          64.7093   92.0449   10.4287 O.3     1  UNL1       -0.4717
     16 C          65.8367   93.0180   10.2496 C.3     1  UNL1        0.2525
     17 C          62.6235   89.9129   10.7514 C.3     1  UNL1        0.0943
     18 S          61.6683   88.7653   10.8949 S.3     1  UNL1       -0.0724
     19 C          62.1907   87.3630   10.9976 C.ar    1  UNL1        0.1719
     20 N          62.7392   86.7148   12.2341 N.ar    1  UNL1       -0.2210
     21 C          63.1438   85.3138   11.8826 C.ar    1  UNL1        0.1014
     22 C          63.7455   84.2082   12.6984 C.ar    1  UNL1        0.0503
     23 C          64.0486   82.8850   12.0605 C.ar    1  UNL1        0.1417
     24 F          64.6503   81.7793   12.8763 F       1  UNL1       -0.2041
     25 C          63.7501   82.6673   10.6067 C.ar    1  UNL1        0.0312
     26 C          63.1485   83.7729    9.7908 C.ar    1  UNL1        0.0211
     27 C          62.8453   85.0961   10.4288 C.ar    1  UNL1        0.0797
     28 N          62.2562   86.3626    9.8819 N.ar    1  UNL1       -0.3011
     29 C          61.8109   86.5889    8.4675 C.3     1  UNL1        0.1496
     30 C          60.3918   86.3049    8.0734 C.2     1  UNL1        0.0733
     31 O          59.2697   87.0746    8.7048 O.co2   1  UNL1       -0.5472
     32 O          60.0946   85.2513    7.0480 O.co2   1  UNL1       -0.5472
@<TRIPOS>UNITY_ATOM_ATTR
31 1
charge -1
@<TRIPOS>BOND
     1    13    14    1
     2    14    12    1
     3    12    11    1
     4    11     7    1
     5     7     8   am
     6     8     9    2
     7     8     1    1
     8     1     2   ar
     9     2     3   ar
    10     3     4   ar
    11     4    15    1
    12    15    16    1
    13     4     5   ar
    14     5    17    1
    15    17    18    1
    16    18    19    1
    17    19    20   ar
    18    20    21   ar
    19    21    22   ar
    20    22    23   ar
    21    23    24    1
    22    23    25   ar
    23    25    26   ar
    24    26    27   ar
    25    27    28   ar
    26    28    29    1
    27    29    30    1
    28    30    31   ar
    29    30    32   ar
    30     5     6   ar
    31     6     1   ar
    32    28    19   ar
    33    27    21   ar
    34     7    10    1
@<TRIPOS>MOLECULE
*****
 32 34 0 0 0
SMALL
GASTEIGER

@<TRIPOS>ATOM
      1 C          62.0823   86.2916   10.9305 C.ar    1  UNL1        0.0533
      2 C          61.2440   85.9172    9.7444 C.ar    1  UNL1        0.0076
      3 C          60.6127   86.9875    8.9041 C.ar    1  UNL1        0.0367
      4 C          60.8199   88.4323    9.2500 C.ar    1  UNL1        0.1355
      5 C          61.6582   88.8068   10.4362 C.ar    1  UNL1        0.0232
      6 C          62.2894   87.7364   11.2764 C.ar    1  UNL1        0.0041
      7 N          62.6342   85.2978   13.2667 N.am    1  UNL1       -0.3009
      8 C          62.7135   85.2213   11.7707 C.2     1  UNL1        0.2458
      9 O          63.4241   84.0745   11.1150 O.2     1  UNL1       -0.2701
     10 H          62.1678   86.0505   13.6971 H       1  UNL1        0.1497
     11 C          63.2654   84.2274   14.1069 C.3     1  UNL1        0.0897
     12 C          62.4043   83.2196   14.8089 C.3     1  UNL1        0.0213
     13 C          62.0682   81.4705   12.9175 C.3     1  UNL1        0.0001
     14 C          62.3907   81.7928   14.3465 C.3     1  UNL1        0.0017
     15 O          60.1887   89.5026    8.4098 O.3     1  UNL1       -0.4717
     16 C          59.4556   89.1353    7.1537 C.3     1  UNL1        0.2525
     17 C          61.8654   90.2516   10.7821 C.3     1  UNL1        0.0943
     18 S          63.1910   90.9028   10.5204 S.3     1  UNL1       -0.0724
     19 C          64.0296   91.3842   11.6672 C.ar    1  UNL1        0.1719
     20 N          65.1721   92.3521   11.5788 N.ar    1  UNL1       -0.2210
     21 C          65.7215   92.5482   12.9607 C.ar    1  UNL1        0.1014
     22 C          66.8491   93.3884   13.4826 C.ar    1  UNL1        0.0503
     23 C          67.1739   93.3819   14.9469 C.ar    1  UNL1        0.1417
     24 F          68.3016   94.2222   15.4689 F       1  UNL1       -0.2041
     25 C          66.3709   92.5353   15.8895 C.ar    1  UNL1        0.0312
     26 C          65.2432   91.6951   15.3676 C.ar    1  UNL1        0.0211
     27 C          64.9185   91.7016   13.9032 C.ar    1  UNL1        0.0797
     28 N          63.8729   90.9821   13.1038 N.ar    1  UNL1       -0.3011
     29 C          62.8501   90.0281   13.6459 C.3     1  UNL1        0.1496
     30 C          63.2107   89.0991   14.7668 C.2     1  UNL1        0.0733
     31 O          64.0894   87.9120   14.5040 O.co2   1  UNL1       -0.5472
     32 O          62.6929   89.3569   16.1508 O.co2   1  UNL1       -0.5472
@<TRIPOS>UNITY_ATOM_ATTR
31 1
charge -1
@<TRIPOS>BOND
     1    13    14    1
     2    14    12    1
     3    12    11    1
     4    11     7    1
     5     7     8   am
     6     8     9    2
     7     8     1    1
     8     1     2   ar
     9     2     3   ar
    10     3     4   ar
    11     4    15    1
    12    15    16    1
    13     4     5   ar
    14     5    17    1
    15    17    18    1
    16    18    19    1
    17    19    20   ar
    18    20    21   ar
    19    21    22   ar
    20    22    23   ar
    21    23    24    1
    22    23    25   ar
    23    25    26   ar
    24    26    27   ar
    25    27    28   ar
    26    28    29    1
    27    29    30    1
    28    30    31   ar
    29    30    32   ar
    30     5     6   ar
    31     6     1   ar
    32    28    19   ar
    33    27    21   ar
    34     7    10    1
@<TRIPOS>MOLECULE
*****
 32 34 0 0 0
SMALL
GASTEIGER

@<TRIPOS>ATOM
      1 C          60.5721   87.8413    9.1381 C.ar    1  UNL1        0.0533
      2 C          60.9890   86.4217    9.3847 C.ar    1  UNL1        0.0076
      3 C          61.8533   86.0879   10.5644 C.ar    1  UNL1        0.0367
      4 C          62.3007   87.1738   11.4975 C.ar    1  UNL1        0.1355
      5 C          61.8837   88.5935   11.2509 C.ar    1  UNL1        0.0232
      6 C          61.0195   88.9272   10.0712 C.ar    1  UNL1        0.0041
      7 N          59.8536   89.5014    7.2732 N.am    1  UNL1       -0.3009
      8 C          59.7079   88.1750    7.9584 C.2     1  UNL1        0.2458
      9 O          58.6978   87.1824    7.4640 O.2     1  UNL1       -0.2701
     10 H          60.5165   90.1529    7.5977 H       1  UNL1        0.1497
     11 C          58.9893   89.8351    6.0935 C.3     1  UNL1        0.0897
     12 C          59.3317   91.0055    5.2201 C.3     1  UNL1        0.0213
     13 C          56.8141   91.5313    4.8527 C.3     1  UNL1        0.0001
     14 C          58.2533   91.9454    4.7688 C.3     1  UNL1        0.0017
     15 O          63.1649   86.8401   12.6772 O.3     1  UNL1       -0.4717
     16 C          63.4294   85.4068   13.0316 C.3     1  UNL1        0.2525
     17 C          62.3311   89.6794   12.1840 C.3     1  UNL1        0.0943
     18 S          63.3020   90.7209   11.7121 S.3     1  UNL1       -0.0724
     19 C          64.3246   91.2766   12.6584 C.ar    1  UNL1        0.1719
     20 N          65.0419   92.5858   12.5121 N.ar    1  UNL1       -0.2210
     21 C          65.9701   92.7389   13.6804 C.ar    1  UNL1        0.1014
     22 C          66.9276   93.8274   14.0657 C.ar    1  UNL1        0.0503
     23 C          67.7413   93.7013   15.3194 C.ar    1  UNL1        0.1417
     24 F          68.6988   94.7899   15.7047 F       1  UNL1       -0.2041
     25 C          67.5976   92.4868   16.1879 C.ar    1  UNL1        0.0312
     26 C          66.6402   91.3983   15.8026 C.ar    1  UNL1        0.0211
     27 C          65.8264   91.5244   14.5489 C.ar    1  UNL1        0.0797
     28 N          64.8094   90.6206   13.9172 N.ar    1  UNL1       -0.3011
     29 C          64.3568   89.2938   14.4508 C.3     1  UNL1        0.1496
     30 C          63.5743   89.2267   15.7287 C.2     1  UNL1        0.0733
     31 O          63.0558   90.4859   16.3577 O.co2   1  UNL1       -0.5472
     32 O          63.3104   87.9004   16.3778 O.co2   1  UNL1       -0.5472
@<TRIPOS>UNITY_ATOM_ATTR
31 1
charge -1
@<TRIPOS>BOND
     1    13    14    1
     2    14    12    1
     3    12    11    1
     4    11     7    1
     5     7     8   am
     6     8     9    2
     7     8     1    1
     8     1     2   ar
     9     2     3   ar
    10     3     4   ar
    11     4    15    1
    12    15    16    1
    13     4     5   ar
    14     5    17    1
    15    17    18    1
    16    18    19    1
    17    19    20   ar
    18    20    21   ar
    19    21    22   ar
    20    22    23   ar
    21    23    24    1
    22    23    25   ar
    23    25    26   ar
    24    26    27   ar
    25    27    28   ar
    26    28    29    1
    27    29    30    1
    28    30    31   ar
    29    30    32   ar
    30     5     6   ar
    31     6     1   ar
    32    28    19   ar
    33    27    21   ar
    34     7    10    1
@<TRIPOS>MOLECULE
*****
 32 34 0 0 0
SMALL
GASTEIGER

@<TRIPOS>ATOM
      1 C          63.5514   90.4912   12.3460 C.ar    1  UNL1        0.0533
      2 C          63.0600   91.2432   11.1447 C.ar    1  UNL1        0.0076
      3 C          62.2958   90.5257   10.0717 C.ar    1  UNL1        0.0367
      4 C          62.0230   89.0563   10.2000 C.ar    1  UNL1        0.1355
      5 C          62.5144   88.3044   11.4014 C.ar    1  UNL1        0.0232
      6 C          63.2786   89.0218   12.4743 C.ar    1  UNL1        0.0041
      7 N          65.7334   91.6329   13.1739 N.am    1  UNL1       -0.3009
      8 C          64.3156   91.2087   13.4189 C.2     1  UNL1        0.2458
      9 O          63.6620   91.5020   14.7368 O.2     1  UNL1       -0.2701
     10 H          66.1624   91.4404   12.3090 H       1  UNL1        0.1497
     11 C          66.4976   92.3504   14.2469 C.3     1  UNL1        0.0897
     12 C          67.6232   91.6581   14.9566 C.3     1  UNL1        0.0213
     13 C          68.4922   93.9060   15.9272 C.3     1  UNL1        0.0001
     14 C          68.4517   92.4068   15.9582 C.3     1  UNL1        0.0017
     15 O          61.2588   88.3388    9.1271 O.3     1  UNL1       -0.4717
     16 C          60.0807   89.0002    8.4754 C.3     1  UNL1        0.2525
     17 C          62.2417   86.8350   11.5298 C.3     1  UNL1        0.0943
     18 S          63.0752   85.9951   12.4515 S.3     1  UNL1       -0.0724
     19 C          62.9345   84.5018   12.4387 C.ar    1  UNL1        0.1719
     20 N          63.2113   83.6001   11.2724 N.ar    1  UNL1       -0.2210
     21 C          62.9401   82.1890   11.7028 C.ar    1  UNL1        0.1014
     22 C          63.0404   80.8810   10.9755 C.ar    1  UNL1        0.0503
     23 C          62.6962   79.6025   11.6805 C.ar    1  UNL1        0.1417
     24 F          62.7966   78.2944   10.9533 F       1  UNL1       -0.2041
     25 C          62.2518   79.6321   13.1129 C.ar    1  UNL1        0.0312
     26 C          62.1514   80.9401   13.8402 C.ar    1  UNL1        0.0211
     27 C          62.4956   82.2186   13.1351 C.ar    1  UNL1        0.0797
     28 N          62.4921   83.6480   13.5899 N.ar    1  UNL1       -0.3011
     29 C          62.1129   84.1375   14.9561 C.3     1  UNL1        0.1496
     30 C          63.0611   85.0019   15.7331 C.2     1  UNL1        0.0733
     31 O          64.5405   84.8678   15.5247 O.co2   1  UNL1       -0.5472
     32 O          62.5300   86.0004   16.7184 O.co2   1  UNL1       -0.5472
@<TRIPOS>UNITY_ATOM_ATTR
31 1
charge -1
@<TRIPOS>BOND
     1    13    14    1
     2    14    12    1
     3    12    11    1
     4    11     7    1
     5     7     8   am
     6     8     9    2
     7     8     1    1
     8     1     2   ar
     9     2     3   ar
    10     3     4   ar
    11     4    15    1
    12    15    16    1
    13     4     5   ar
    14     5    17    1
    15    17    18    1
    16    18    19    1
    17    19    20   ar
    18    20    21   ar
    19    21    22   ar
    20    22    23   ar
    21    23    24    1
    22    23    25   ar
    23    25    26   ar
    24    26    27   ar
    25    27    28   ar
    26    28    29    1
    27    29    30    1
    28    30    31   ar
    29    30    32   ar
    30     5     6   ar
    31     6     1   ar
    32    28    19   ar
    33    27    21   ar
    34     7    10    1
