@<TRIPOS>MOLECULE
*****
 27 29 0 0 0
SMALL
GASTEIGER

@<TRIPOS>ATOM
      1 C          63.9832   87.8914   15.3400 C.ar    1  UNL1        0.1363
      2 N          63.2390   88.5296   16.4754 N.ar    1  UNL1       -0.1379
      3 N          63.0955   89.9916   16.1720 N.ar    1  UNL1       -0.1027
      4 C          63.7510   90.2570   14.8492 C.ar    1  UNL1        0.2825
      5 S          64.2996   88.9590   14.3350 S.2     1  UNL1       -0.0074
      6 C          63.9390   85.6553   14.0179 C.2     1  UNL1       -0.0048
      7 C          64.3470   86.4405   15.2291 C.2     1  UNL1        0.0248
      8 C          64.3029   84.2044   13.9070 C.3     1  UNL1        0.0939
      9 C          64.1786   83.3066   15.1022 C.3     1  UNL1        0.0262
     10 C          64.3109   82.8534   10.1755 C.3     1  UNL1        0.0946
     11 C          63.8230   83.4065   11.4816 C.2     1  UNL1        0.2232
     12 O          62.3669   83.7149   11.6682 O.2     1  UNL1       -0.2751
     13 N          64.7909   83.6512   12.6010 N.am    1  UNL1       -0.3022
     14 H          65.7466   83.4488   12.4785 H       1  UNL1        0.1497
     15 O          63.8419   91.5868   14.1613 O.3     1  UNL1       -0.4295
     16 C          64.9696   91.8646   13.2119 C.ar    1  UNL1        0.1584
     17 C          64.6941   92.0223   11.7459 C.ar    1  UNL1        0.0416
     18 C          65.8217   92.3001   10.7966 C.ar    1  UNL1        0.0401
     19 C          67.2248   92.4202   11.3132 C.ar    1  UNL1        0.1396
     20 C          67.5003   92.2625   12.7792 C.ar    1  UNL1        0.0514
     21 C          66.3726   91.9847   13.7286 C.ar    1  UNL1        0.0952
     22 CL         66.6481   91.8270   15.1947 Cl      1  UNL1       -0.0790
     23 O          68.3524   92.6980   10.3638 O.3     1  UNL1       -0.4754
     24 C          68.0822   93.3885    9.0599 C.3     1  UNL1        0.2053
     25 C          67.6098   94.8122    9.0490 C.3     1  UNL1        0.0438
     26 C          67.1576   96.0366    9.7882 C.3     1  UNL1        0.0038
     27 C          67.2437   96.0536    8.2908 C.3     1  UNL1        0.0038
@<TRIPOS>BOND
     1    10    11    1
     2    11    12    2
     3    11    13   am
     4    13     8    1
     5     8     9    1
     6     8     6    1
     7     6     7    2
     8     7     1    1
     9     1     2   ar
    10     2     3   ar
    11     3     4   ar
    12     4    15    1
    13    15    16    1
    14    16    17   ar
    15    17    18   ar
    16    18    19   ar
    17    19    23    1
    18    23    24    1
    19    24    25    1
    20    25    26    1
    21    26    27    1
    22    19    20   ar
    23    20    21   ar
    24    21    22    1
    25     4     5   ar
    26     5     1   ar
    27    21    16   ar
    28    27    25    1
    29    13    14    1
@<TRIPOS>MOLECULE
*****
 27 29 0 0 0
SMALL
GASTEIGER

@<TRIPOS>ATOM
      1 C          62.2060   90.2705   10.9281 C.ar    1  UNL1        0.1363
      2 N          60.7348   90.4774   10.7207 N.ar    1  UNL1       -0.1379
      3 N          60.1612   89.2063   10.1684 N.ar    1  UNL1       -0.1027
      4 C          61.2779   88.2137   10.0343 C.ar    1  UNL1        0.2825
      5 S          62.5416   88.8715   10.5038 S.2     1  UNL1       -0.0074
      6 C          64.2470   91.8396   10.5787 C.2     1  UNL1       -0.0048
      7 C          63.1719   91.2846   11.4653 C.2     1  UNL1        0.0248
      8 C          65.2129   92.8537   11.1160 C.3     1  UNL1        0.0939
      9 C          65.6281   92.8045   12.5566 C.3     1  UNL1        0.0262
     10 C          67.7527   94.9335    8.8858 C.3     1  UNL1        0.0946
     11 C          67.2019   93.8703    9.7891 C.2     1  UNL1        0.2232
     12 O          68.0893   92.7602   10.2690 O.2     1  UNL1       -0.2751
     13 N          65.7637   93.9170   10.2126 N.am    1  UNL1       -0.3022
     14 H          65.1812   94.6456    9.8977 H       1  UNL1        0.1497
     15 O          61.1527   86.8099    9.5209 O.3     1  UNL1       -0.4295
     16 C          61.9939   85.7174   10.1117 C.ar    1  UNL1        0.1584
     17 C          61.9634   85.4635   11.5897 C.ar    1  UNL1        0.0416
     18 C          62.8045   84.3711   12.1805 C.ar    1  UNL1        0.0401
     19 C          63.6761   83.5326   11.2933 C.ar    1  UNL1        0.1396
     20 C          63.7066   83.7865    9.8153 C.ar    1  UNL1        0.0514
     21 C          62.8655   84.8789    9.2245 C.ar    1  UNL1        0.0952
     22 CL         62.8959   85.1329    7.7464 Cl      1  UNL1       -0.0790
     23 O          64.5172   82.4401   11.8841 O.3     1  UNL1       -0.4754
     24 C          64.1938   81.8970   13.2444 C.3     1  UNL1        0.2053
     25 C          62.9139   81.1472   13.4678 C.3     1  UNL1        0.0438
     26 C          61.4929   81.1169   13.9471 C.3     1  UNL1        0.0038
     27 C          62.1182   79.8791   13.3756 C.3     1  UNL1        0.0038
@<TRIPOS>BOND
     1    10    11    1
     2    11    12    2
     3    11    13   am
     4    13     8    1
     5     8     9    1
     6     8     6    1
     7     6     7    2
     8     7     1    1
     9     1     2   ar
    10     2     3   ar
    11     3     4   ar
    12     4    15    1
    13    15    16    1
    14    16    17   ar
    15    17    18   ar
    16    18    19   ar
    17    19    23    1
    18    23    24    1
    19    24    25    1
    20    25    26    1
    21    26    27    1
    22    19    20   ar
    23    20    21   ar
    24    21    22    1
    25     4     5   ar
    26     5     1   ar
    27    21    16   ar
    28    27    25    1
    29    13    14    1
@<TRIPOS>MOLECULE
*****
 27 29 0 0 0
SMALL
GASTEIGER

@<TRIPOS>ATOM
      1 C          61.8138   86.8049   10.0384 C.ar    1  UNL1        0.1363
      2 N          60.9035   87.4041    9.0076 N.ar    1  UNL1       -0.1379
      3 N          60.7373   88.8604    9.3262 N.ar    1  UNL1       -0.1027
      4 C          61.5448   89.1613   10.5540 C.ar    1  UNL1        0.2825
      5 S          62.2101   87.8910   10.9941 S.2     1  UNL1       -0.0074
      6 C          62.7444   84.7948   11.3961 C.2     1  UNL1       -0.0048
      7 C          62.2510   85.3715   10.1023 C.2     1  UNL1        0.0248
      8 C          63.1815   83.3613   11.4600 C.3     1  UNL1        0.0939
      9 C          64.5164   82.9589   10.9065 C.3     1  UNL1        0.0262
     10 C          61.4366   81.0494   14.1728 C.3     1  UNL1        0.0946
     11 C          62.3342   82.0804   13.5554 C.2     1  UNL1        0.2232
     12 O          63.2823   82.8615   14.4163 O.2     1  UNL1       -0.2751
     13 N          62.2838   82.3303   12.0773 N.am    1  UNL1       -0.3022
     14 H          61.6616   81.8177   11.5123 H       1  UNL1        0.1497
     15 O          61.6658   90.4979   11.2239 O.3     1  UNL1       -0.4295
     16 C          63.0206   91.0552   11.5468 C.ar    1  UNL1        0.1584
     17 C          63.7844   91.8198   10.5067 C.ar    1  UNL1        0.0416
     18 C          65.1391   92.3770   10.8297 C.ar    1  UNL1        0.0401
     19 C          65.7299   92.1696   12.1927 C.ar    1  UNL1        0.1396
     20 C          64.9661   91.4049   13.2328 C.ar    1  UNL1        0.0514
     21 C          63.6114   90.8477   12.9099 C.ar    1  UNL1        0.0952
     22 CL         62.8475   90.0830   13.9500 Cl      1  UNL1       -0.0790
     23 O          67.0847   92.7268   12.5156 O.3     1  UNL1       -0.4754
     24 C          68.0072   91.9742   13.4279 C.3     1  UNL1        0.2053
     25 C          68.0761   92.3286   14.8839 C.3     1  UNL1        0.0438
     26 C          68.8849   92.6205   16.1129 C.3     1  UNL1        0.0038
     27 C          67.3866   92.6506   16.1765 C.3     1  UNL1        0.0038
@<TRIPOS>BOND
     1    10    11    1
     2    11    12    2
     3    11    13   am
     4    13     8    1
     5     8     9    1
     6     8     6    1
     7     6     7    2
     8     7     1    1
     9     1     2   ar
    10     2     3   ar
    11     3     4   ar
    12     4    15    1
    13    15    16    1
    14    16    17   ar
    15    17    18   ar
    16    18    19   ar
    17    19    23    1
    18    23    24    1
    19    24    25    1
    20    25    26    1
    21    26    27    1
    22    19    20   ar
    23    20    21   ar
    24    21    22    1
    25     4     5   ar
    26     5     1   ar
    27    21    16   ar
    28    27    25    1
    29    13    14    1
@<TRIPOS>MOLECULE
*****
 27 29 0 0 0
SMALL
GASTEIGER

@<TRIPOS>ATOM
      1 C          62.2757   90.3714   10.5796 C.ar    1  UNL1        0.1363
      2 N          60.7873   90.5573   10.5975 N.ar    1  UNL1       -0.1379
      3 N          60.1526   89.2526   10.2171 N.ar    1  UNL1       -0.1027
      4 C          61.2486   88.2603    9.9640 C.ar    1  UNL1        0.2825
      5 S          62.5608   88.9518   10.1880 S.2     1  UNL1       -0.0074
      6 C          64.1749   91.2728   12.1062 C.2     1  UNL1       -0.0048
      7 C          63.2993   91.4209   10.8974 C.2     1  UNL1        0.0248
      8 C          65.1984   92.3222   12.4240 C.3     1  UNL1        0.0939
      9 C          65.5685   93.3459   11.3919 C.3     1  UNL1        0.0262
     10 C          67.9818   92.1384   15.2469 C.3     1  UNL1        0.0946
     11 C          67.3282   92.1127   13.8971 C.2     1  UNL1        0.2232
     12 O          68.1510   91.8516   12.6704 O.2     1  UNL1       -0.2751
     13 N          65.8519   92.3480   13.7740 N.am    1  UNL1       -0.3022
     14 H          65.3119   92.5194   14.5791 H       1  UNL1        0.1497
     15 O          61.0648   86.8281    9.5581 O.3     1  UNL1       -0.4295
     16 C          61.9302   85.7609   10.1600 C.ar    1  UNL1        0.1584
     17 C          61.9056   85.5218   11.6406 C.ar    1  UNL1        0.0416
     18 C          62.7710   84.4547   12.2425 C.ar    1  UNL1        0.0401
     19 C          63.6611   83.6267   11.3637 C.ar    1  UNL1        0.1396
     20 C          63.6858   83.8658    9.8831 C.ar    1  UNL1        0.0514
     21 C          62.8203   84.9329    9.2813 C.ar    1  UNL1        0.0952
     22 CL         62.8450   85.1721    7.8006 Cl      1  UNL1       -0.0790
     23 O          64.5266   82.5595   11.9656 O.3     1  UNL1       -0.4754
     24 C          64.1808   81.9805   13.3054 C.3     1  UNL1        0.2053
     25 C          62.9116   81.2003   13.4804 C.3     1  UNL1        0.0438
     26 C          61.4853   81.1257   13.9386 C.3     1  UNL1        0.0038
     27 C          62.1397   79.9235   13.3251 C.3     1  UNL1        0.0038
@<TRIPOS>BOND
     1    10    11    1
     2    11    12    2
     3    11    13   am
     4    13     8    1
     5     8     9    1
     6     8     6    1
     7     6     7    2
     8     7     1    1
     9     1     2   ar
    10     2     3   ar
    11     3     4   ar
    12     4    15    1
    13    15    16    1
    14    16    17   ar
    15    17    18   ar
    16    18    19   ar
    17    19    23    1
    18    23    24    1
    19    24    25    1
    20    25    26    1
    21    26    27    1
    22    19    20   ar
    23    20    21   ar
    24    21    22    1
    25     4     5   ar
    26     5     1   ar
    27    21    16   ar
    28    27    25    1
    29    13    14    1
@<TRIPOS>MOLECULE
*****
 27 29 0 0 0
SMALL
GASTEIGER

@<TRIPOS>ATOM
      1 C          62.1539   86.3859   10.3956 C.ar    1  UNL1        0.1363
      2 N          61.5583   87.0665    9.1989 N.ar    1  UNL1       -0.1379
      3 N          61.3636   88.5146    9.5384 N.ar    1  UNL1       -0.1027
      4 C          61.8388   88.7289   10.9449 C.ar    1  UNL1        0.2825
      5 S          62.3272   87.4133   11.4747 S.2     1  UNL1       -0.0074
      6 C          62.8024   84.3224   11.8349 C.2     1  UNL1       -0.0048
      7 C          62.5130   84.9329   10.4956 C.2     1  UNL1        0.0248
      8 C          63.1615   82.8695   11.9349 C.3     1  UNL1        0.0939
      9 C          64.5590   82.4194   11.6274 C.3     1  UNL1        0.0262
     10 C          60.8536   80.5720   14.2031 C.3     1  UNL1        0.0946
     11 C          61.8919   81.5748   13.7955 C.2     1  UNL1        0.2232
     12 O          62.6990   82.2858   14.8410 O.2     1  UNL1       -0.2751
     13 N          62.1232   81.8666   12.3425 N.am    1  UNL1       -0.3022
     14 H          61.5935   81.3999   11.6563 H       1  UNL1        0.1497
     15 O          61.8275   90.0303   11.6906 O.3     1  UNL1       -0.4295
     16 C          63.0583   90.8871   11.7225 C.ar    1  UNL1        0.1584
     17 C          63.5166   91.5881   10.4781 C.ar    1  UNL1        0.0416
     18 C          64.7474   92.4449   10.5100 C.ar    1  UNL1        0.0401
     19 C          65.5198   92.6008   11.7863 C.ar    1  UNL1        0.1396
     20 C          65.0615   91.8998   13.0307 C.ar    1  UNL1        0.0514
     21 C          63.8308   91.0430   12.9988 C.ar    1  UNL1        0.0952
     22 CL         63.3724   90.3420   14.2433 Cl      1  UNL1       -0.0790
     23 O          66.7506   93.4576   11.8182 O.3     1  UNL1       -0.4754
     24 C          66.7355   94.8160   11.1822 C.3     1  UNL1        0.2053
     25 C          67.1492   94.9780    9.7495 C.3     1  UNL1        0.0438
     26 C          67.7550   94.4104    8.5001 C.3     1  UNL1        0.0038
     27 C          67.2601   95.8263    8.5173 C.3     1  UNL1        0.0038
@<TRIPOS>BOND
     1    10    11    1
     2    11    12    2
     3    11    13   am
     4    13     8    1
     5     8     9    1
     6     8     6    1
     7     6     7    2
     8     7     1    1
     9     1     2   ar
    10     2     3   ar
    11     3     4   ar
    12     4    15    1
    13    15    16    1
    14    16    17   ar
    15    17    18   ar
    16    18    19   ar
    17    19    23    1
    18    23    24    1
    19    24    25    1
    20    25    26    1
    21    26    27    1
    22    19    20   ar
    23    20    21   ar
    24    21    22    1
    25     4     5   ar
    26     5     1   ar
    27    21    16   ar
    28    27    25    1
    29    13    14    1
@<TRIPOS>MOLECULE
*****
 27 29 0 0 0
SMALL
GASTEIGER

@<TRIPOS>ATOM
      1 C          61.9145   86.5672   10.7220 C.ar    1  UNL1        0.1363
      2 N          61.2904   86.9520    9.4134 N.ar    1  UNL1       -0.1379
      3 N          61.1765   88.4472    9.3760 N.ar    1  UNL1       -0.1027
      4 C          61.7301   88.9865   10.6616 C.ar    1  UNL1        0.2825
      5 S          62.1862   87.8246   11.4934 S.2     1  UNL1       -0.0074
      6 C          62.9258   84.9432   12.4797 C.2     1  UNL1       -0.0048
      7 C          62.2141   85.1703   11.1790 C.2     1  UNL1        0.0248
      8 C          63.2255   83.5463   12.9367 C.3     1  UNL1        0.0939
      9 C          64.0060   83.3209   14.1977 C.3     1  UNL1        0.0262
     10 C          63.0934   80.6824   10.1926 C.3     1  UNL1        0.0946
     11 C          63.5741   81.8538   10.9966 C.2     1  UNL1        0.2232
     12 O          64.8843   82.5043   10.6646 O.2     1  UNL1       -0.2751
     13 N          62.7447   82.3748   12.1327 N.am    1  UNL1       -0.3022
     14 H          61.8848   81.9479   12.3507 H       1  UNL1        0.1497
     15 O          61.8130   90.4336   11.0475 O.3     1  UNL1       -0.4295
     16 C          63.1360   91.0370   11.4159 C.ar    1  UNL1        0.1584
     17 C          63.9449   91.7604   10.3804 C.ar    1  UNL1        0.0416
     18 C          65.2678   92.3637   10.7489 C.ar    1  UNL1        0.0401
     19 C          65.7819   92.2436   12.1530 C.ar    1  UNL1        0.1396
     20 C          64.9730   91.5201   13.1885 C.ar    1  UNL1        0.0514
     21 C          63.6501   90.9168   12.8200 C.ar    1  UNL1        0.0952
     22 CL         62.8412   90.1933   13.8555 Cl      1  UNL1       -0.0790
     23 O          67.1049   92.8469   12.5215 O.3     1  UNL1       -0.4754
     24 C          68.0498   92.0958   13.4119 C.3     1  UNL1        0.2053
     25 C          68.0920   92.3933   14.8815 C.3     1  UNL1        0.0438
     26 C          67.3789   92.6638   16.1732 C.3     1  UNL1        0.0038
     27 C          68.8782   92.6383   16.1353 C.3     1  UNL1        0.0038
@<TRIPOS>BOND
     1    10    11    1
     2    11    12    2
     3    11    13   am
     4    13     8    1
     5     8     9    1
     6     8     6    1
     7     6     7    2
     8     7     1    1
     9     1     2   ar
    10     2     3   ar
    11     3     4   ar
    12     4    15    1
    13    15    16    1
    14    16    17   ar
    15    17    18   ar
    16    18    19   ar
    17    19    23    1
    18    23    24    1
    19    24    25    1
    20    25    26    1
    21    26    27    1
    22    19    20   ar
    23    20    21   ar
    24    21    22    1
    25     4     5   ar
    26     5     1   ar
    27    21    16   ar
    28    27    25    1
    29    13    14    1
@<TRIPOS>MOLECULE
*****
 27 29 0 0 0
SMALL
GASTEIGER

@<TRIPOS>ATOM
      1 C          61.1456   87.0694    9.0528 C.ar    1  UNL1        0.1363
      2 N          61.1204   88.4073    9.7306 N.ar    1  UNL1       -0.1379
      3 N          60.1540   89.2838    8.9905 N.ar    1  UNL1       -0.1027
      4 C          59.5819   88.4876    7.8553 C.ar    1  UNL1        0.2825
      5 S          60.1947   87.1190    7.8938 S.2     1  UNL1       -0.0074
      6 C          62.0029   85.4526   10.8970 C.2     1  UNL1       -0.0048
      7 C          61.9759   85.8891    9.4622 C.2     1  UNL1        0.0248
      8 C          62.8331   84.2723   11.3064 C.3     1  UNL1        0.0939
      9 C          63.8324   83.6906   10.3508 C.3     1  UNL1        0.0262
     10 C          62.3393   81.5912   14.1904 C.3     1  UNL1        0.0946
     11 C          62.5083   82.1899   12.8255 C.2     1  UNL1        0.2232
     12 O          62.5214   81.3045   11.6147 O.2     1  UNL1       -0.2751
     13 N          62.6642   83.6737   12.6714 N.am    1  UNL1       -0.3022
     14 H          62.6556   84.2548   13.4660 H       1  UNL1        0.1497
     15 O          58.5739   88.9745    6.8569 O.3     1  UNL1       -0.4295
     16 C          58.9265   90.0902    5.9182 C.ar    1  UNL1        0.1584
     17 C          60.3653   90.4055    5.6349 C.ar    1  UNL1        0.0416
     18 C          60.7178   91.5212    4.6963 C.ar    1  UNL1        0.0401
     19 C          59.6314   92.3215    4.0410 C.ar    1  UNL1        0.1396
     20 C          58.1926   92.0061    4.3243 C.ar    1  UNL1        0.0514
     21 C          57.8401   90.8904    5.2629 C.ar    1  UNL1        0.0952
     22 CL         56.4013   90.5750    5.5462 Cl      1  UNL1       -0.0790
     23 O          59.9840   93.4371    3.1023 O.3     1  UNL1       -0.4754
     24 C          60.7000   93.1391    1.8184 C.3     1  UNL1        0.2053
     25 C          62.1891   92.9577    1.8147 C.3     1  UNL1        0.0438
     26 C          63.5496   93.3929    1.3570 C.3     1  UNL1        0.0038
     27 C          63.4075   92.2082    2.2660 C.3     1  UNL1        0.0038
@<TRIPOS>BOND
     1    10    11    1
     2    11    12    2
     3    11    13   am
     4    13     8    1
     5     8     9    1
     6     8     6    1
     7     6     7    2
     8     7     1    1
     9     1     2   ar
    10     2     3   ar
    11     3     4   ar
    12     4    15    1
    13    15    16    1
    14    16    17   ar
    15    17    18   ar
    16    18    19   ar
    17    19    23    1
    18    23    24    1
    19    24    25    1
    20    25    26    1
    21    26    27    1
    22    19    20   ar
    23    20    21   ar
    24    21    22    1
    25     4     5   ar
    26     5     1   ar
    27    21    16   ar
    28    27    25    1
    29    13    14    1
@<TRIPOS>MOLECULE
*****
 27 29 0 0 0
SMALL
GASTEIGER

@<TRIPOS>ATOM
      1 C          61.1803   88.1156    9.8666 C.ar    1  UNL1        0.1363
      2 N          60.1574   89.1695    9.5618 N.ar    1  UNL1       -0.1379
      3 N          60.3565   90.3013   10.5258 N.ar    1  UNL1       -0.1027
      4 C          61.5025   89.9470   11.4264 C.ar    1  UNL1        0.2825
      5 S          62.0117   88.5961   11.0190 S.2     1  UNL1       -0.0074
      6 C          62.7091   86.2151    8.9716 C.2     1  UNL1       -0.0048
      7 C          61.3433   86.8104    9.1456 C.2     1  UNL1        0.0248
      8 C          62.8721   84.9099    8.2506 C.3     1  UNL1        0.0939
      9 C          62.2906   84.7329    6.8792 C.3     1  UNL1        0.0262
     10 C          64.3430   82.5050   11.0439 C.3     1  UNL1        0.0946
     11 C          63.5986   83.6331   10.3934 C.2     1  UNL1        0.2232
     12 O          62.8362   84.6128   11.2356 O.2     1  UNL1       -0.2751
     13 N          63.6165   83.7817    8.9010 N.am    1  UNL1       -0.3022
     14 H          64.1169   83.1388    8.3482 H       1  UNL1        0.1497
     15 O          62.0443   90.7946   12.5390 O.3     1  UNL1       -0.4295
     16 C          63.4892   91.1976   12.5396 C.ar    1  UNL1        0.1584
     17 C          64.0989   91.8050   11.3111 C.ar    1  UNL1        0.0416
     18 C          65.5437   92.2080   11.3117 C.ar    1  UNL1        0.0401
     19 C          66.3788   92.0036   12.5408 C.ar    1  UNL1        0.1396
     20 C          65.7691   91.3962   13.7694 C.ar    1  UNL1        0.0514
     21 C          64.3243   90.9932   13.7687 C.ar    1  UNL1        0.0952
     22 CL         63.7146   90.3858   14.9973 Cl      1  UNL1       -0.0790
     23 O          67.8237   92.4067   12.5414 O.3     1  UNL1       -0.4754
     24 C          68.7271   91.9579   13.6515 C.3     1  UNL1        0.2053
     25 C          68.5797   92.5471   15.0231 C.3     1  UNL1        0.0438
     26 C          68.8327   93.6651   15.9907 C.3     1  UNL1        0.0038
     27 C          68.0716   92.4498   16.4311 C.3     1  UNL1        0.0038
@<TRIPOS>BOND
     1    10    11    1
     2    11    12    2
     3    11    13   am
     4    13     8    1
     5     8     9    1
     6     8     6    1
     7     6     7    2
     8     7     1    1
     9     1     2   ar
    10     2     3   ar
    11     3     4   ar
    12     4    15    1
    13    15    16    1
    14    16    17   ar
    15    17    18   ar
    16    18    19   ar
    17    19    23    1
    18    23    24    1
    19    24    25    1
    20    25    26    1
    21    26    27    1
    22    19    20   ar
    23    20    21   ar
    24    21    22    1
    25     4     5   ar
    26     5     1   ar
    27    21    16   ar
    28    27    25    1
    29    13    14    1
@<TRIPOS>MOLECULE
*****
 27 29 0 0 0
SMALL
GASTEIGER

@<TRIPOS>ATOM
      1 C          61.9554   85.8829   10.6791 C.ar    1  UNL1        0.1363
      2 N          60.8571   86.3584    9.7748 N.ar    1  UNL1       -0.1379
      3 N          60.5091   87.7636   10.1675 N.ar    1  UNL1       -0.1027
      4 C          61.3922   88.1566   11.3145 C.ar    1  UNL1        0.2825
      5 S          62.2861   86.9942   11.6307 S.2     1  UNL1       -0.0074
      6 C          63.0727   83.8863   11.9102 C.2     1  UNL1       -0.0048
      7 C          62.6083   84.5330   10.6389 C.2     1  UNL1        0.0248
      8 C          63.7256   82.5365   11.8699 C.3     1  UNL1        0.0939
      9 C          64.5560   82.0701   13.0288 C.3     1  UNL1        0.0262
     10 C          62.7872   79.3969    9.6313 C.3     1  UNL1        0.0946
     11 C          62.9647   80.2804   10.8304 C.2     1  UNL1        0.2232
     12 O          62.5589   79.7912   12.1891 O.2     1  UNL1       -0.2751
     13 N          63.5481   81.6530   10.6708 N.am    1  UNL1       -0.3022
     14 H          63.8145   81.9741    9.7791 H       1  UNL1        0.1497
     15 O          61.3832   89.4796   12.0212 O.3     1  UNL1       -0.4295
     16 C          62.6377   90.2985   12.0962 C.ar    1  UNL1        0.1584
     17 C          63.3806   90.4155   13.3940 C.ar    1  UNL1        0.0416
     18 C          64.6350   91.2343   13.4690 C.ar    1  UNL1        0.0401
     19 C          65.1467   91.9363   12.2461 C.ar    1  UNL1        0.1396
     20 C          64.4038   91.8193   10.9482 C.ar    1  UNL1        0.0514
     21 C          63.1494   91.0005   10.8733 C.ar    1  UNL1        0.0952
     22 CL         62.4064   90.8835    9.5754 Cl      1  UNL1       -0.0790
     23 O          66.4013   92.7552   12.3211 O.3     1  UNL1       -0.4754
     24 C          66.4104   94.1625   11.8023 C.3     1  UNL1        0.2053
     25 C          66.8410   94.4393   10.3922 C.3     1  UNL1        0.0438
     26 C          67.9011   94.4249    9.3312 C.3     1  UNL1        0.0038
     27 C          66.5266   94.9331    9.0112 C.3     1  UNL1        0.0038
@<TRIPOS>BOND
     1    10    11    1
     2    11    12    2
     3    11    13   am
     4    13     8    1
     5     8     9    1
     6     8     6    1
     7     6     7    2
     8     7     1    1
     9     1     2   ar
    10     2     3   ar
    11     3     4   ar
    12     4    15    1
    13    15    16    1
    14    16    17   ar
    15    17    18   ar
    16    18    19   ar
    17    19    23    1
    18    23    24    1
    19    24    25    1
    20    25    26    1
    21    26    27    1
    22    19    20   ar
    23    20    21   ar
    24    21    22    1
    25     4     5   ar
    26     5     1   ar
    27    21    16   ar
    28    27    25    1
    29    13    14    1
