@<TRIPOS>MOLECULE
*****
 25 27 0 0 0
SMALL
GASTEIGER

@<TRIPOS>ATOM
      1 C          62.0379   86.8811   10.2790 C.ar    1  UNL1        0.0070
      2 C          62.5669   86.7430    8.8822 C.ar    1  UNL1       -0.0017
      3 C          63.1694   85.4448    8.4334 C.ar    1  UNL1       -0.0002
      4 C          63.2430   84.2847    9.3813 C.ar    1  UNL1       -0.0000
      5 C          62.7140   84.4227   10.7781 C.ar    1  UNL1       -0.0002
      6 C          62.1114   85.7210   11.2270 C.ar    1  UNL1       -0.0017
      7 C          62.7875   83.2626   11.7261 C.ar    1  UNL1        0.0001
      8 C          62.9277   81.8671   11.1941 C.ar    1  UNL1        0.0023
      9 C          63.0012   80.7070   12.1421 C.ar    1  UNL1        0.0296
     10 C          62.9346   80.9423   13.6220 C.ar    1  UNL1        0.1401
     11 F          63.0081   79.7821   14.5700 F       1  UNL1       -0.2042
     12 C          62.7944   82.3377   14.1539 C.ar    1  UNL1        0.0296
     13 C          62.7209   83.4979   13.2060 C.ar    1  UNL1        0.0023
     14 C          61.4353   88.1794   10.7279 C.3     1  UNL1        0.1410
     15 O          62.3540   88.1959   11.9135 O.3     1  UNL1       -0.3771
     16 H          63.2518   88.4213   11.6237 H       1  UNL1        0.2112
     17 C          60.5166   88.1629    9.5423 C.ar    1  UNL1        0.0825
     18 C          59.5559   87.0672    9.1864 C.ar    1  UNL1        0.1157
     19 N          58.8429   87.4664    7.9285 N.ar    1  UNL1       -0.2228
     20 C          59.3629   88.8087    7.5069 C.ar    1  UNL1        0.1749
     21 N          60.3973   89.2392    8.5042 N.ar    1  UNL1       -0.3361
     22 H          60.9082   90.0804    8.4815 H       1  UNL1        0.1673
     23 C          61.5632   90.7658   10.9380 C.3     1  UNL1        0.0031
     24 C          60.8327   89.4776   11.1767 C.3     1  UNL1        0.0340
     25 C          59.4996   89.4877   11.8643 C.3     1  UNL1        0.0031
@<TRIPOS>BOND
     1    23    24    1
     2    24    25    1
     3    24    14    1
     4    14    15    1
     5    14     1    1
     6     1     2   ar
     7     2     3   ar
     8     3     4   ar
     9     4     5   ar
    10     5     7    1
    11     7     8   ar
    12     8     9   ar
    13     9    10   ar
    14    10    11    1
    15    10    12   ar
    16    12    13   ar
    17     5     6   ar
    18    14    17    1
    19    17    18   ar
    20    18    19   ar
    21    19    20   ar
    22    20    21   ar
    23     6     1   ar
    24    21    17   ar
    25    13     7   ar
    26    15    16    1
    27    21    22    1
@<TRIPOS>MOLECULE
*****
 25 27 0 0 0
SMALL
GASTEIGER

@<TRIPOS>ATOM
      1 C          63.1962   84.7081   12.0391 C.ar    1  UNL1        0.0070
      2 C          64.0113   83.7089   11.2729 C.ar    1  UNL1       -0.0017
      3 C          63.9094   83.6465    9.7777 C.ar    1  UNL1       -0.0002
      4 C          62.9924   84.5833    9.0487 C.ar    1  UNL1       -0.0000
      5 C          62.1773   85.5826    9.8149 C.ar    1  UNL1       -0.0002
      6 C          62.2793   85.6450   11.3101 C.ar    1  UNL1       -0.0017
      7 C          61.2603   86.5194    9.0859 C.ar    1  UNL1        0.0001
      8 C          60.3426   85.9941    8.0220 C.ar    1  UNL1        0.0023
      9 C          59.4256   86.9310    7.2930 C.ar    1  UNL1        0.0296
     10 C          59.4264   88.3931    7.6279 C.ar    1  UNL1        0.1401
     11 F          58.5094   89.3299    6.8989 F       1  UNL1       -0.2042
     12 C          60.3441   88.9184    8.6917 C.ar    1  UNL1        0.0296
     13 C          61.2611   87.9815    9.4207 C.ar    1  UNL1        0.0023
     14 C          63.2981   84.7706   13.5344 C.3     1  UNL1        0.1410
     15 O          63.4506   86.2610   13.4618 O.3     1  UNL1       -0.3771
     16 H          62.5939   86.6637   13.2502 H       1  UNL1        0.2112
     17 C          63.1457   83.2801   13.6070 C.ar    1  UNL1        0.0825
     18 C          64.1744   82.3121   14.1116 C.ar    1  UNL1        0.1157
     19 N          63.6022   80.9296   14.0042 N.ar    1  UNL1       -0.2228
     20 C          62.2197   81.0433   13.4331 C.ar    1  UNL1        0.1749
     21 N          61.9376   82.4959   13.1877 N.ar    1  UNL1       -0.3361
     22 H          61.1056   82.8691   12.8165 H       1  UNL1        0.1673
     23 C          62.2590   84.3579   15.8796 C.3     1  UNL1        0.0031
     24 C          63.4000   84.8330   15.0296 C.3     1  UNL1        0.0340
     25 C          64.6430   85.3704   15.6749 C.3     1  UNL1        0.0031
@<TRIPOS>BOND
     1    23    24    1
     2    24    25    1
     3    24    14    1
     4    14    15    1
     5    14     1    1
     6     1     2   ar
     7     2     3   ar
     8     3     4   ar
     9     4     5   ar
    10     5     7    1
    11     7     8   ar
    12     8     9   ar
    13     9    10   ar
    14    10    11    1
    15    10    12   ar
    16    12    13   ar
    17     5     6   ar
    18    14    17    1
    19    17    18   ar
    20    18    19   ar
    21    19    20   ar
    22    20    21   ar
    23     6     1   ar
    24    21    17   ar
    25    13     7   ar
    26    15    16    1
    27    21    22    1
@<TRIPOS>MOLECULE
*****
 25 27 0 0 0
SMALL
GASTEIGER

@<TRIPOS>ATOM
      1 C          62.9405   83.4544   11.3219 C.ar    1  UNL1        0.0070
      2 C          63.7082   83.1122   10.0795 C.ar    1  UNL1       -0.0017
      3 C          63.7943   84.1010    8.9549 C.ar    1  UNL1       -0.0002
      4 C          63.1126   85.4320    9.0726 C.ar    1  UNL1       -0.0000
      5 C          62.3449   85.7741   10.3150 C.ar    1  UNL1       -0.0002
      6 C          62.2588   84.7853   11.4396 C.ar    1  UNL1       -0.0017
      7 C          61.6632   87.1051   10.4327 C.ar    1  UNL1        0.0001
      8 C          62.2645   88.1829   11.2850 C.ar    1  UNL1        0.0023
      9 C          61.5828   89.5139   11.4027 C.ar    1  UNL1        0.0296
     10 C          60.2998   89.7670   10.6681 C.ar    1  UNL1        0.1401
     11 F          59.6181   91.0979   10.7859 F       1  UNL1       -0.2042
     12 C          59.6984   88.6891    9.8158 C.ar    1  UNL1        0.0296
     13 C          60.3801   87.3581    9.6981 C.ar    1  UNL1        0.0023
     14 C          62.8544   82.4655   12.4466 C.3     1  UNL1        0.1410
     15 O          62.3632   81.4200   11.4898 O.3     1  UNL1       -0.3771
     16 H          63.1008   81.1129   10.9398 H       1  UNL1        0.2112
     17 C          63.3457   83.5111   13.4034 C.ar    1  UNL1        0.0825
     18 C          62.5216   84.2128   14.4419 C.ar    1  UNL1        0.1157
     19 N          63.4139   85.1740   15.1700 N.ar    1  UNL1       -0.2228
     20 C          64.7894   85.0663   14.5814 C.ar    1  UNL1        0.1749
     21 N          64.7473   84.0386   13.4896 N.ar    1  UNL1       -0.3361
     22 H          65.5062   83.7593   12.9282 H       1  UNL1        0.1673
     23 C          61.4365   81.1400   14.1736 C.3     1  UNL1        0.0031
     24 C          62.7684   81.4768   13.5713 C.3     1  UNL1        0.0340
     25 C          64.0142   80.8248   14.0937 C.3     1  UNL1        0.0031
@<TRIPOS>BOND
     1    23    24    1
     2    24    25    1
     3    24    14    1
     4    14    15    1
     5    14     1    1
     6     1     2   ar
     7     2     3   ar
     8     3     4   ar
     9     4     5   ar
    10     5     7    1
    11     7     8   ar
    12     8     9   ar
    13     9    10   ar
    14    10    11    1
    15    10    12   ar
    16    12    13   ar
    17     5     6   ar
    18    14    17    1
    19    17    18   ar
    20    18    19   ar
    21    19    20   ar
    22    20    21   ar
    23     6     1   ar
    24    21    17   ar
    25    13     7   ar
    26    15    16    1
    27    21    22    1
@<TRIPOS>MOLECULE
*****
 25 27 0 0 0
SMALL
GASTEIGER

@<TRIPOS>ATOM
      1 C          62.8421   84.6846   13.1407 C.ar    1  UNL1        0.0070
      2 C          63.7405   85.6060   13.9113 C.ar    1  UNL1       -0.0017
      3 C          63.8727   87.0423   13.4996 C.ar    1  UNL1       -0.0002
      4 C          63.1065   87.5571   12.3172 C.ar    1  UNL1       -0.0000
      5 C          62.2082   86.6357   11.5466 C.ar    1  UNL1       -0.0002
      6 C          62.0760   85.1995   11.9583 C.ar    1  UNL1       -0.0017
      7 C          61.4420   87.1506   10.3643 C.ar    1  UNL1        0.0001
      8 C          60.8990   86.1914    9.3470 C.ar    1  UNL1        0.0023
      9 C          60.1328   86.7063    8.1646 C.ar    1  UNL1        0.0296
     10 C          59.9098   88.1804    7.9996 C.ar    1  UNL1        0.1401
     11 F          59.1436   88.6953    6.8173 F       1  UNL1       -0.2042
     12 C          60.4528   89.1396    9.0169 C.ar    1  UNL1        0.0296
     13 C          61.2190   88.6247   10.1993 C.ar    1  UNL1        0.0023
     14 C          62.7099   83.2482   13.5524 C.3     1  UNL1        0.1410
     15 O          62.1123   83.6778   14.8594 O.3     1  UNL1       -0.3771
     16 H          61.2032   83.9835   14.7143 H       1  UNL1        0.2112
     17 C          63.3074   82.8186   12.2454 C.ar    1  UNL1        0.0825
     18 C          64.6136   83.2880   11.6764 C.ar    1  UNL1        0.1157
     19 N          64.8172   82.6036   10.3571 N.ar    1  UNL1       -0.2228
     20 C          63.6368   81.7113   10.1108 C.ar    1  UNL1        0.1749
     21 N          62.7038   81.8442   11.2777 N.ar    1  UNL1       -0.3361
     22 H          61.8458   81.3743   11.3891 H       1  UNL1        0.1673
     23 C          63.8038   80.9651   14.1362 C.3     1  UNL1        0.0031
     24 C          62.5777   81.8119   13.9640 C.3     1  UNL1        0.0340
     25 C          61.2193   81.2223   14.2034 C.3     1  UNL1        0.0031
@<TRIPOS>BOND
     1    23    24    1
     2    24    25    1
     3    24    14    1
     4    14    15    1
     5    14     1    1
     6     1     2   ar
     7     2     3   ar
     8     3     4   ar
     9     4     5   ar
    10     5     7    1
    11     7     8   ar
    12     8     9   ar
    13     9    10   ar
    14    10    11    1
    15    10    12   ar
    16    12    13   ar
    17     5     6   ar
    18    14    17    1
    19    17    18   ar
    20    18    19   ar
    21    19    20   ar
    22    20    21   ar
    23     6     1   ar
    24    21    17   ar
    25    13     7   ar
    26    15    16    1
    27    21    22    1
@<TRIPOS>MOLECULE
*****
 25 27 0 0 0
SMALL
GASTEIGER

@<TRIPOS>ATOM
      1 C          63.3402   84.0343   14.2387 C.ar    1  UNL1        0.0070
      2 C          64.2441   84.3745   15.3863 C.ar    1  UNL1       -0.0017
      3 C          64.7714   85.7705   15.5373 C.ar    1  UNL1       -0.0002
      4 C          64.3949   86.8264   14.5406 C.ar    1  UNL1       -0.0000
      5 C          63.4910   86.4862   13.3929 C.ar    1  UNL1       -0.0002
      6 C          62.9637   85.0901   13.2420 C.ar    1  UNL1       -0.0017
      7 C          63.1145   87.5420   12.3962 C.ar    1  UNL1        0.0001
      8 C          62.3913   87.1621   11.1383 C.ar    1  UNL1        0.0023
      9 C          62.0147   88.2179   10.1416 C.ar    1  UNL1        0.0296
     10 C          62.3614   89.6537   10.4028 C.ar    1  UNL1        0.1401
     11 F          61.9849   90.7096    9.4061 F       1  UNL1       -0.2042
     12 C          63.0847   90.0336   11.6608 C.ar    1  UNL1        0.0296
     13 C          63.4612   88.9778   12.6575 C.ar    1  UNL1        0.0023
     14 C          62.8128   82.6381   14.0876 C.3     1  UNL1        0.1410
     15 O          62.2801   82.6877   15.4890 O.3     1  UNL1       -0.3771
     16 H          61.4926   83.2534   15.5157 H       1  UNL1        0.2112
     17 C          63.3455   82.5885   12.6863 C.ar    1  UNL1        0.0825
     18 C          64.7910   82.6463   12.2900 C.ar    1  UNL1        0.1157
     19 N          64.8651   82.5659   10.7939 N.ar    1  UNL1       -0.2228
     20 C          63.4652   82.4585   10.2656 C.ar    1  UNL1        0.1749
     21 N          62.5261   82.4725   11.4352 N.ar    1  UNL1       -0.3361
     22 H          61.5443   82.4155   11.3896 H       1  UNL1        0.1673
     23 C          60.8129   80.9801   14.0510 C.3     1  UNL1        0.0031
     24 C          62.2854   81.2421   13.9366 C.3     1  UNL1        0.0340
     25 C          63.2306   80.1079   13.6711 C.3     1  UNL1        0.0031
@<TRIPOS>BOND
     1    23    24    1
     2    24    25    1
     3    24    14    1
     4    14    15    1
     5    14     1    1
     6     1     2   ar
     7     2     3   ar
     8     3     4   ar
     9     4     5   ar
    10     5     7    1
    11     7     8   ar
    12     8     9   ar
    13     9    10   ar
    14    10    11    1
    15    10    12   ar
    16    12    13   ar
    17     5     6   ar
    18    14    17    1
    19    17    18   ar
    20    18    19   ar
    21    19    20   ar
    22    20    21   ar
    23     6     1   ar
    24    21    17   ar
    25    13     7   ar
    26    15    16    1
    27    21    22    1
@<TRIPOS>MOLECULE
*****
 25 27 0 0 0
SMALL
GASTEIGER

@<TRIPOS>ATOM
      1 C          62.3654   86.0607   11.4541 C.ar    1  UNL1        0.0070
      2 C          61.0113   86.4077   10.9100 C.ar    1  UNL1       -0.0017
      3 C          60.5214   87.8243   10.9652 C.ar    1  UNL1       -0.0002
      4 C          61.3856   88.8940   11.5644 C.ar    1  UNL1       -0.0000
      5 C          62.7397   88.5470   12.1084 C.ar    1  UNL1       -0.0002
      6 C          63.2296   87.1304   12.0533 C.ar    1  UNL1       -0.0017
      7 C          63.6038   89.6167   12.7076 C.ar    1  UNL1        0.0001
      8 C          63.8366   90.8976   11.9627 C.ar    1  UNL1        0.0023
      9 C          64.7007   91.9673   12.5619 C.ar    1  UNL1        0.0296
     10 C          65.3321   91.7560   13.9060 C.ar    1  UNL1        0.1401
     11 F          66.1963   92.8256   14.5052 F       1  UNL1       -0.2042
     12 C          65.0994   90.4750   14.6509 C.ar    1  UNL1        0.0296
     13 C          64.2352   89.4054   14.0517 C.ar    1  UNL1        0.0023
     14 C          62.8554   84.6440   11.3989 C.3     1  UNL1        0.1410
     15 O          62.6569   84.6331    9.9122 O.3     1  UNL1       -0.3771
     16 H          63.3543   85.1580    9.4891 H       1  UNL1        0.2112
     17 C          63.0539   84.6549   12.8857 C.ar    1  UNL1        0.0825
     18 C          64.3706   84.5771   13.6000 C.ar    1  UNL1        0.1157
     19 N          64.1010   84.6196   15.0750 N.ar    1  UNL1       -0.2228
     20 C          62.6177   84.7235   15.2723 C.ar    1  UNL1        0.1749
     21 N          61.9705   84.7453   13.9193 N.ar    1  UNL1       -0.3361
     22 H          61.0043   84.8080   13.7409 H       1  UNL1        0.1673
     23 C          62.5905   82.1445   12.0562 C.3     1  UNL1        0.0031
     24 C          63.3453   83.2274   11.3439 C.3     1  UNL1        0.0340
     25 C          64.5902   82.8936   10.5764 C.3     1  UNL1        0.0031
@<TRIPOS>BOND
     1    23    24    1
     2    24    25    1
     3    24    14    1
     4    14    15    1
     5    14     1    1
     6     1     2   ar
     7     2     3   ar
     8     3     4   ar
     9     4     5   ar
    10     5     7    1
    11     7     8   ar
    12     8     9   ar
    13     9    10   ar
    14    10    11    1
    15    10    12   ar
    16    12    13   ar
    17     5     6   ar
    18    14    17    1
    19    17    18   ar
    20    18    19   ar
    21    19    20   ar
    22    20    21   ar
    23     6     1   ar
    24    21    17   ar
    25    13     7   ar
    26    15    16    1
    27    21    22    1
@<TRIPOS>MOLECULE
*****
 25 27 0 0 0
SMALL
GASTEIGER

@<TRIPOS>ATOM
      1 C          61.3479   87.1958   10.5569 C.ar    1  UNL1        0.0070
      2 C          61.8268   87.2418    9.1362 C.ar    1  UNL1       -0.0017
      3 C          62.6779   86.1315    8.5954 C.ar    1  UNL1       -0.0002
      4 C          63.0502   84.9751    9.4753 C.ar    1  UNL1       -0.0000
      5 C          62.5714   84.9291   10.8960 C.ar    1  UNL1       -0.0002
      6 C          61.7202   86.0395   11.4368 C.ar    1  UNL1       -0.0017
      7 C          62.9437   83.7727   11.7759 C.ar    1  UNL1        0.0001
      8 C          62.6895   82.3679   11.3157 C.ar    1  UNL1        0.0023
      9 C          63.0618   81.2115   12.1956 C.ar    1  UNL1        0.0296
     10 C          63.6882   81.4600   13.5357 C.ar    1  UNL1        0.1401
     11 F          64.0605   80.3036   14.4156 F       1  UNL1       -0.2042
     12 C          63.9424   82.8648   13.9958 C.ar    1  UNL1        0.0296
     13 C          63.5701   84.0212   13.1159 C.ar    1  UNL1        0.0023
     14 C          60.4967   88.3062   11.0978 C.3     1  UNL1        0.1410
     15 O          59.2625   87.5169   10.7762 O.3     1  UNL1       -0.3771
     16 H          59.1669   86.7921   11.4137 H       1  UNL1        0.2112
     17 C          61.7310   89.0956   11.4195 C.ar    1  UNL1        0.0825
     18 C          62.5226   89.9267   10.4539 C.ar    1  UNL1        0.1157
     19 N          63.6713   90.5373   11.2009 N.ar    1  UNL1       -0.2228
     20 C          63.5894   90.0834   12.6283 C.ar    1  UNL1        0.1749
     21 N          62.3903   89.1925   12.7634 N.ar    1  UNL1       -0.3361
     22 H          62.0889   88.7491   13.5892 H       1  UNL1        0.1673
     23 C          59.6923   90.7748   11.0039 C.3     1  UNL1        0.0031
     24 C          59.6456   89.4166   11.6387 C.3     1  UNL1        0.0340
     25 C          58.7477   89.1688   12.8146 C.3     1  UNL1        0.0031
@<TRIPOS>BOND
     1    23    24    1
     2    24    25    1
     3    24    14    1
     4    14    15    1
     5    14     1    1
     6     1     2   ar
     7     2     3   ar
     8     3     4   ar
     9     4     5   ar
    10     5     7    1
    11     7     8   ar
    12     8     9   ar
    13     9    10   ar
    14    10    11    1
    15    10    12   ar
    16    12    13   ar
    17     5     6   ar
    18    14    17    1
    19    17    18   ar
    20    18    19   ar
    21    19    20   ar
    22    20    21   ar
    23     6     1   ar
    24    21    17   ar
    25    13     7   ar
    26    15    16    1
    27    21    22    1
@<TRIPOS>MOLECULE
*****
 25 27 0 0 0
SMALL
GASTEIGER

@<TRIPOS>ATOM
      1 C          61.6982   87.1177   10.7612 C.ar    1  UNL1        0.0070
      2 C          62.5531   88.1124   11.4890 C.ar    1  UNL1       -0.0017
      3 C          63.4426   87.6595   12.6087 C.ar    1  UNL1       -0.0002
      4 C          63.4772   86.2120   13.0005 C.ar    1  UNL1       -0.0000
      5 C          62.6224   85.2173   12.2726 C.ar    1  UNL1       -0.0002
      6 C          61.7329   85.6702   11.1529 C.ar    1  UNL1       -0.0017
      7 C          62.6570   83.7698   12.6644 C.ar    1  UNL1        0.0001
      8 C          62.4108   83.3725   14.0897 C.ar    1  UNL1        0.0023
      9 C          62.4455   81.9250   14.4815 C.ar    1  UNL1        0.0296
     10 C          62.7263   80.8748   13.4480 C.ar    1  UNL1        0.1401
     11 F          62.7609   79.4273   13.8398 F       1  UNL1       -0.2042
     12 C          62.9724   81.2721   12.0227 C.ar    1  UNL1        0.0296
     13 C          62.9378   82.7196   11.6309 C.ar    1  UNL1        0.0023
     14 C          60.8087   87.5706    9.6414 C.3     1  UNL1        0.1410
     15 O          61.4865   86.6069    8.7131 O.3     1  UNL1       -0.3771
     16 H          61.1965   85.7038    8.9164 H       1  UNL1        0.2112
     17 C          60.1309   88.5342   10.5697 C.ar    1  UNL1        0.0825
     18 C          60.1081   90.0274   10.4278 C.ar    1  UNL1        0.1157
     19 N          59.3199   90.5900   11.5734 N.ar    1  UNL1       -0.2228
     20 C          58.8555   89.4445   12.4233 C.ar    1  UNL1        0.1749
     21 N          59.3566   88.1740   11.8030 N.ar    1  UNL1       -0.3361
     22 H          59.2042   87.2636   12.1453 H       1  UNL1        0.1673
     23 C          58.8509   87.1107    7.9966 C.3     1  UNL1        0.0031
     24 C          59.9192   88.0234    8.5218 C.3     1  UNL1        0.0340
     25 C          60.0979   89.3890    7.9273 C.3     1  UNL1        0.0031
@<TRIPOS>BOND
     1    23    24    1
     2    24    25    1
     3    24    14    1
     4    14    15    1
     5    14     1    1
     6     1     2   ar
     7     2     3   ar
     8     3     4   ar
     9     4     5   ar
    10     5     7    1
    11     7     8   ar
    12     8     9   ar
    13     9    10   ar
    14    10    11    1
    15    10    12   ar
    16    12    13   ar
    17     5     6   ar
    18    14    17    1
    19    17    18   ar
    20    18    19   ar
    21    19    20   ar
    22    20    21   ar
    23     6     1   ar
    24    21    17   ar
    25    13     7   ar
    26    15    16    1
    27    21    22    1
@<TRIPOS>MOLECULE
*****
 25 27 0 0 0
SMALL
GASTEIGER

@<TRIPOS>ATOM
      1 C          62.3408   89.8866   11.5642 C.ar    1  UNL1        0.0070
      2 C          61.0246   90.1057   12.2494 C.ar    1  UNL1       -0.0017
      3 C          59.8350   89.2736   11.8722 C.ar    1  UNL1       -0.0002
      4 C          59.9616   88.2223   10.8098 C.ar    1  UNL1       -0.0000
      5 C          61.2778   88.0031   10.1246 C.ar    1  UNL1       -0.0002
      6 C          62.4674   88.8353   10.5018 C.ar    1  UNL1       -0.0017
      7 C          61.4043   86.9518    9.0622 C.ar    1  UNL1        0.0001
      8 C          60.2436   86.6535    8.1602 C.ar    1  UNL1        0.0023
      9 C          60.3702   85.6022    7.0978 C.ar    1  UNL1        0.0296
     10 C          61.6575   84.8492    6.9373 C.ar    1  UNL1        0.1401
     11 F          61.7840   83.7979    5.8749 F       1  UNL1       -0.2042
     12 C          62.8182   85.1475    7.8393 C.ar    1  UNL1        0.0296
     13 C          62.6916   86.1988    8.9018 C.ar    1  UNL1        0.0023
     14 C          63.5305   90.7187   11.9413 C.3     1  UNL1        0.1410
     15 O          63.5169   91.3541   10.5826 O.3     1  UNL1       -0.3771
     16 H          62.7785   91.9805   10.5260 H       1  UNL1        0.2112
     17 C          63.5441   90.0834   13.3000 C.ar    1  UNL1        0.0825
     18 C          63.9679   88.6788   13.6124 C.ar    1  UNL1        0.1157
     19 N          63.8220   88.4684   15.0905 N.ar    1  UNL1       -0.2228
     20 C          63.3080   89.7430   15.6916 C.ar    1  UNL1        0.1749
     21 N          63.1363   90.7411   14.5851 N.ar    1  UNL1       -0.3361
     22 H          62.8127   91.6656   14.6847 H       1  UNL1        0.1673
     23 C          65.5382   91.1877   13.5222 C.3     1  UNL1        0.0031
     24 C          64.7201   91.5508   12.3185 C.3     1  UNL1        0.0340
     25 C          65.0918   92.7462   11.4920 C.3     1  UNL1        0.0031
@<TRIPOS>BOND
     1    23    24    1
     2    24    25    1
     3    24    14    1
     4    14    15    1
     5    14     1    1
     6     1     2   ar
     7     2     3   ar
     8     3     4   ar
     9     4     5   ar
    10     5     7    1
    11     7     8   ar
    12     8     9   ar
    13     9    10   ar
    14    10    11    1
    15    10    12   ar
    16    12    13   ar
    17     5     6   ar
    18    14    17    1
    19    17    18   ar
    20    18    19   ar
    21    19    20   ar
    22    20    21   ar
    23     6     1   ar
    24    21    17   ar
    25    13     7   ar
    26    15    16    1
    27    21    22    1
