@<TRIPOS>MOLECULE
*****
 26 29 0 0 0
SMALL
GASTEIGER

@<TRIPOS>ATOM
      1 C          62.7865   86.9077   11.7685 C.3     1  UNL1        0.1270
      2 C          62.9536   85.5055   12.2745 C.ar    1  UNL1        0.0249
      3 C          62.4530   84.3497   11.4601 C.ar    1  UNL1       -0.0005
      4 C          62.6201   82.9475   11.9661 C.ar    1  UNL1       -0.0001
      5 C          63.2876   82.7013   13.2866 C.ar    1  UNL1        0.0031
      6 C          63.7882   83.8571   14.1010 C.ar    1  UNL1        0.0372
      7 C          63.6211   85.2593   13.5950 C.ar    1  UNL1        0.1420
      8 O          64.1217   86.4152   14.4095 O.3     1  UNL1       -0.4541
      9 C          63.9546   87.8173   13.9035 C.ar    1  UNL1        0.1420
     10 C          64.4552   88.9733   14.7179 C.ar    1  UNL1        0.0372
     11 C          64.2881   90.3754   14.2119 C.ar    1  UNL1        0.0031
     12 C          63.6206   90.6217   12.8914 C.ar    1  UNL1       -0.0001
     13 C          63.1200   89.4658   12.0769 C.ar    1  UNL1       -0.0005
     14 C          63.2871   88.0636   12.5830 C.ar    1  UNL1        0.0249
     15 N          60.7965   87.8599   10.3963 N.am    1  UNL1       -0.2636
     16 C          62.1190   87.1540   10.4480 C.2     1  UNL1        0.2355
     17 O          62.7740   86.6943    9.1792 O.2     1  UNL1       -0.2740
     18 H          60.3666   88.1616   11.2290 H       1  UNL1        0.1568
     19 C          59.3801   89.1814    7.0328 C.ar    1  UNL1        0.0671
     20 C          58.8232   87.7888    7.0546 C.ar    1  UNL1        0.0528
     21 S          59.2860   87.1243    8.3172 S.2     1  UNL1       -0.0512
     22 C          60.1289   88.1061    9.0758 C.ar    1  UNL1        0.1652
     23 N          60.1871   89.3775    8.2819 N.ar    1  UNL1       -0.2283
     24 C          60.3435   90.7646    5.2119 C.3     1  UNL1        0.0063
     25 C          59.1674   90.1992    5.9516 C.3     1  UNL1        0.0409
     26 C          57.7786   90.6516    5.6102 C.3     1  UNL1        0.0063
@<TRIPOS>BOND
     1    24    25    1
     2    25    26    1
     3    25    19    1
     4    19    20   ar
     5    20    21   ar
     6    21    22   ar
     7    22    15    1
     8    15    16   am
     9    16    17    2
    10    16     1    1
    11     1     2    1
    12     2     3   ar
    13     3     4   ar
    14     4     5   ar
    15     5     6   ar
    16     6     7   ar
    17     7     8    1
    18     8     9    1
    19     9    10   ar
    20    10    11   ar
    21    11    12   ar
    22    12    13   ar
    23    13    14   ar
    24    22    23   ar
    25    23    19   ar
    26    14     1    1
    27     7     2   ar
    28    14     9   ar
    29    15    18    1
@<TRIPOS>MOLECULE
*****
 26 29 0 0 0
SMALL
GASTEIGER

@<TRIPOS>ATOM
      1 C          62.7831   86.8915   11.7617 C.3     1  UNL1        0.1270
      2 C          63.2836   88.0455   12.5789 C.ar    1  UNL1        0.0249
      3 C          63.1164   89.4489   12.0764 C.ar    1  UNL1       -0.0005
      4 C          63.6169   90.6028   12.8936 C.ar    1  UNL1       -0.0001
      5 C          64.2846   90.3534   14.2134 C.ar    1  UNL1        0.0031
      6 C          64.4518   88.9500   14.7160 C.ar    1  UNL1        0.0372
      7 C          63.9513   87.7961   13.8988 C.ar    1  UNL1        0.1420
      8 O          64.1185   86.3927   14.4013 O.3     1  UNL1       -0.4541
      9 C          63.6180   85.2388   13.5841 C.ar    1  UNL1        0.1420
     10 C          63.7853   83.8353   14.0867 C.ar    1  UNL1        0.0372
     11 C          63.2848   82.6814   13.2694 C.ar    1  UNL1        0.0031
     12 C          62.6171   82.9308   11.9496 C.ar    1  UNL1       -0.0001
     13 C          62.4498   84.3342   11.4470 C.ar    1  UNL1       -0.0005
     14 C          62.9503   85.4882   12.2643 C.ar    1  UNL1        0.0249
     15 N          60.7964   87.8534   10.3914 N.am    1  UNL1       -0.2636
     16 C          62.1154   87.1409   10.4419 C.2     1  UNL1        0.2355
     17 O          62.7667   86.6778    9.1724 O.2     1  UNL1       -0.2740
     18 H          60.3690   88.1574   11.2245 H       1  UNL1        0.1568
     19 C          59.3808   89.1826    7.0306 C.ar    1  UNL1        0.0671
     20 C          58.8216   87.7908    7.0505 C.ar    1  UNL1        0.0528
     21 S          59.2839   87.1236    8.3118 S.2     1  UNL1       -0.0512
     22 C          60.1287   88.1029    9.0716 C.ar    1  UNL1        0.1652
     23 N          60.1886   89.3754    8.2797 N.ar    1  UNL1       -0.2283
     24 C          60.3458   90.7655    5.2104 C.3     1  UNL1        0.0063
     25 C          59.1693   90.2024    5.9511 C.3     1  UNL1        0.0409
     26 C          57.7813   90.6592    5.6125 C.3     1  UNL1        0.0063
@<TRIPOS>BOND
     1    24    25    1
     2    25    26    1
     3    25    19    1
     4    19    20   ar
     5    20    21   ar
     6    21    22   ar
     7    22    15    1
     8    15    16   am
     9    16    17    2
    10    16     1    1
    11     1     2    1
    12     2     3   ar
    13     3     4   ar
    14     4     5   ar
    15     5     6   ar
    16     6     7   ar
    17     7     8    1
    18     8     9    1
    19     9    10   ar
    20    10    11   ar
    21    11    12   ar
    22    12    13   ar
    23    13    14   ar
    24    22    23   ar
    25    23    19   ar
    26    14     1    1
    27     7     2   ar
    28    14     9   ar
    29    15    18    1
@<TRIPOS>MOLECULE
*****
 26 29 0 0 0
SMALL
GASTEIGER

@<TRIPOS>ATOM
      1 C          62.0080   87.4441   10.7773 C.3     1  UNL1        0.1270
      2 C          62.5804   88.6178   11.5154 C.ar    1  UNL1        0.0249
      3 C          63.5237   88.3962   12.6604 C.ar    1  UNL1       -0.0005
      4 C          64.0961   89.5699   13.3984 C.ar    1  UNL1       -0.0001
      5 C          63.7251   90.9652   12.9916 C.ar    1  UNL1        0.0031
      6 C          62.7818   91.1868   11.8466 C.ar    1  UNL1        0.0372
      7 C          62.2094   90.0131   11.1086 C.ar    1  UNL1        0.1420
      8 O          61.2660   90.2347    9.9636 O.3     1  UNL1       -0.4541
      9 C          60.6936   89.0610    9.2255 C.ar    1  UNL1        0.1420
     10 C          59.7502   89.2826    8.0805 C.ar    1  UNL1        0.0372
     11 C          59.1779   88.1089    7.3424 C.ar    1  UNL1        0.0031
     12 C          59.5488   86.7136    7.7493 C.ar    1  UNL1       -0.0001
     13 C          60.4922   86.4920    8.8942 C.ar    1  UNL1       -0.0005
     14 C          61.0646   87.6657    9.6323 C.ar    1  UNL1        0.0249
     15 N          62.2439   85.6243   12.6164 N.am    1  UNL1       -0.2636
     16 C          62.3789   86.0488   11.1841 C.2     1  UNL1        0.2355
     17 O          62.8850   85.0781   10.1586 O.2     1  UNL1       -0.2740
     18 H          61.9118   86.2614   13.2895 H       1  UNL1        0.1568
     19 C          62.8183   81.8107   13.0545 C.ar    1  UNL1        0.0671
     20 C          63.5532   82.3530   14.2443 C.ar    1  UNL1        0.0528
     21 S          63.4275   83.8476   14.2250 S.2     1  UNL1       -0.0512
     22 C          62.6149   84.2290   13.0233 C.ar    1  UNL1        0.1652
     23 N          62.2384   82.9701   12.2999 N.ar    1  UNL1       -0.2283
     24 C          62.9410   79.9237   11.2728 C.3     1  UNL1        0.0063
     25 C          62.6864   80.3631   12.6843 C.3     1  UNL1        0.0409
     26 C          62.3000   79.3549   13.7255 C.3     1  UNL1        0.0063
@<TRIPOS>BOND
     1    24    25    1
     2    25    26    1
     3    25    19    1
     4    19    20   ar
     5    20    21   ar
     6    21    22   ar
     7    22    15    1
     8    15    16   am
     9    16    17    2
    10    16     1    1
    11     1     2    1
    12     2     3   ar
    13     3     4   ar
    14     4     5   ar
    15     5     6   ar
    16     6     7   ar
    17     7     8    1
    18     8     9    1
    19     9    10   ar
    20    10    11   ar
    21    11    12   ar
    22    12    13   ar
    23    13    14   ar
    24    22    23   ar
    25    23    19   ar
    26    14     1    1
    27     7     2   ar
    28    14     9   ar
    29    15    18    1
@<TRIPOS>MOLECULE
*****
 26 29 0 0 0
SMALL
GASTEIGER

@<TRIPOS>ATOM
      1 C          62.0096   87.4460   10.7785 C.3     1  UNL1        0.1270
      2 C          61.0664   87.6699    9.6337 C.ar    1  UNL1        0.0249
      3 C          60.4917   86.4977    8.8951 C.ar    1  UNL1       -0.0005
      4 C          59.5486   86.7217    7.7504 C.ar    1  UNL1       -0.0001
      5 C          59.1802   88.1179    7.3444 C.ar    1  UNL1        0.0031
      6 C          59.7548   89.2901    8.0830 C.ar    1  UNL1        0.0372
      7 C          60.6979   89.0661    9.2277 C.ar    1  UNL1        0.1420
      8 O          61.2727   90.2384    9.9664 O.3     1  UNL1       -0.4541
      9 C          62.2158   90.0144   11.1110 C.ar    1  UNL1        0.1420
     10 C          62.7905   91.1867   11.8498 C.ar    1  UNL1        0.0372
     11 C          63.7336   90.9627   12.9944 C.ar    1  UNL1        0.0031
     12 C          64.1020   89.5665   13.4005 C.ar    1  UNL1       -0.0001
     13 C          63.5274   88.3943   12.6618 C.ar    1  UNL1       -0.0005
     14 C          62.5842   88.6182   11.5171 C.ar    1  UNL1        0.0249
     15 N          62.2453   85.6256   12.6171 N.am    1  UNL1       -0.2636
     16 C          62.3780   86.0498   11.1845 C.2     1  UNL1        0.2355
     17 O          62.8792   85.0777   10.1578 O.2     1  UNL1       -0.2740
     18 H          61.9163   86.2636   13.2909 H       1  UNL1        0.1568
     19 C          62.8171   81.8110   13.0502 C.ar    1  UNL1        0.0671
     20 C          63.5445   82.3507   14.2458 C.ar    1  UNL1        0.0528
     21 S          63.4188   83.8454   14.2291 S.2     1  UNL1       -0.0512
     22 C          62.6138   84.2294   13.0232 C.ar    1  UNL1        0.1652
     23 N          62.2419   82.9721   12.2945 N.ar    1  UNL1       -0.2283
     24 C          62.9503   79.9282   11.2648 C.3     1  UNL1        0.0063
     25 C          62.6876   80.3643   12.6758 C.3     1  UNL1        0.0409
     26 C          62.2954   79.3536   13.7125 C.3     1  UNL1        0.0063
@<TRIPOS>BOND
     1    24    25    1
     2    25    26    1
     3    25    19    1
     4    19    20   ar
     5    20    21   ar
     6    21    22   ar
     7    22    15    1
     8    15    16   am
     9    16    17    2
    10    16     1    1
    11     1     2    1
    12     2     3   ar
    13     3     4   ar
    14     4     5   ar
    15     5     6   ar
    16     6     7   ar
    17     7     8    1
    18     8     9    1
    19     9    10   ar
    20    10    11   ar
    21    11    12   ar
    22    12    13   ar
    23    13    14   ar
    24    22    23   ar
    25    23    19   ar
    26    14     1    1
    27     7     2   ar
    28    14     9   ar
    29    15    18    1
@<TRIPOS>MOLECULE
*****
 26 29 0 0 0
SMALL
GASTEIGER

@<TRIPOS>ATOM
      1 C          62.5907   87.5312   11.7071 C.3     1  UNL1        0.1270
      2 C          61.6663   87.7212   10.5411 C.ar    1  UNL1        0.0249
      3 C          61.3084   89.1047   10.0854 C.ar    1  UNL1       -0.0005
      4 C          60.3840   89.2947    8.9195 C.ar    1  UNL1       -0.0001
      5 C          59.8174   88.1011    8.2094 C.ar    1  UNL1        0.0031
      6 C          60.1753   86.7175    8.6651 C.ar    1  UNL1        0.0372
      7 C          61.0997   86.5276    9.8309 C.ar    1  UNL1        0.1420
      8 O          61.4576   85.1440   10.2867 O.3     1  UNL1       -0.4541
      9 C          62.3821   84.9541   11.4526 C.ar    1  UNL1        0.1420
     10 C          62.7400   83.5705   11.9084 C.ar    1  UNL1        0.0372
     11 C          63.6644   83.3805   13.0742 C.ar    1  UNL1        0.0031
     12 C          64.2309   84.5741   13.7844 C.ar    1  UNL1       -0.0001
     13 C          63.8731   85.9577   13.3287 C.ar    1  UNL1       -0.0005
     14 C          62.9486   86.1477   12.1628 C.ar    1  UNL1        0.0249
     15 N          63.5110   88.6338   13.8721 N.am    1  UNL1       -0.2636
     16 C          63.1573   88.7248   12.4172 C.2     1  UNL1        0.2355
     17 O          63.3701   90.0094   11.6725 O.2     1  UNL1       -0.2740
     18 H          63.3713   87.7907   14.3608 H       1  UNL1        0.1568
     19 C          65.5044   91.7002   15.1719 C.ar    1  UNL1        0.0671
     20 C          64.3944   91.6283   16.1783 C.ar    1  UNL1        0.0528
     21 S          63.5126   90.4708   15.8138 S.2     1  UNL1       -0.0512
     22 C          64.0776   89.8274   14.5822 C.ar    1  UNL1        0.1652
     23 N          65.3085   90.5872   14.1855 N.ar    1  UNL1       -0.2283
     24 C          67.7118   92.6330   16.1756 C.3     1  UNL1        0.0063
     25 C          66.6152   92.7081   15.1549 C.3     1  UNL1        0.0409
     26 C          66.6293   93.7911   14.1172 C.3     1  UNL1        0.0063
@<TRIPOS>BOND
     1    24    25    1
     2    25    26    1
     3    25    19    1
     4    19    20   ar
     5    20    21   ar
     6    21    22   ar
     7    22    15    1
     8    15    16   am
     9    16    17    2
    10    16     1    1
    11     1     2    1
    12     2     3   ar
    13     3     4   ar
    14     4     5   ar
    15     5     6   ar
    16     6     7   ar
    17     7     8    1
    18     8     9    1
    19     9    10   ar
    20    10    11   ar
    21    11    12   ar
    22    12    13   ar
    23    13    14   ar
    24    22    23   ar
    25    23    19   ar
    26    14     1    1
    27     7     2   ar
    28    14     9   ar
    29    15    18    1
@<TRIPOS>MOLECULE
*****
 26 29 0 0 0
SMALL
GASTEIGER

@<TRIPOS>ATOM
      1 C          62.5903   87.5246   11.6777 C.3     1  UNL1        0.1270
      2 C          62.9481   86.1410   12.1336 C.ar    1  UNL1        0.0249
      3 C          63.8719   85.9511   13.2999 C.ar    1  UNL1       -0.0005
      4 C          64.2297   84.5675   13.7557 C.ar    1  UNL1       -0.0001
      5 C          63.6636   83.3739   13.0452 C.ar    1  UNL1        0.0031
      6 C          62.7398   83.5639   11.8788 C.ar    1  UNL1        0.0372
      7 C          62.3820   84.9474   11.4230 C.ar    1  UNL1        0.1420
      8 O          61.4582   85.1374   10.2566 O.3     1  UNL1       -0.4541
      9 C          61.1004   86.5209    9.8008 C.ar    1  UNL1        0.1420
     10 C          60.1766   86.7109    8.6344 C.ar    1  UNL1        0.0372
     11 C          59.8188   88.0945    8.1786 C.ar    1  UNL1        0.0031
     12 C          60.3849   89.2881    8.8891 C.ar    1  UNL1       -0.0001
     13 C          61.3087   89.0981   10.0555 C.ar    1  UNL1       -0.0005
     14 C          61.6665   87.7145   10.5114 C.ar    1  UNL1        0.0249
     15 N          63.5386   88.6181   13.8352 N.am    1  UNL1       -0.2636
     16 C          63.1564   88.7182   12.3883 C.2     1  UNL1        0.2355
     17 O          63.3402   90.0120   11.6517 O.2     1  UNL1       -0.2740
     18 H          63.4180   87.7689   14.3186 H       1  UNL1        0.1568
     19 C          65.5384   91.6764   15.1441 C.ar    1  UNL1        0.0671
     20 C          64.4132   91.6205   16.1344 C.ar    1  UNL1        0.0528
     21 S          63.5271   90.4680   15.7647 S.2     1  UNL1       -0.0512
     22 C          64.1047   89.8117   14.5458 C.ar    1  UNL1        0.1652
     23 N          65.3477   90.5585   14.1623 N.ar    1  UNL1       -0.2283
     24 C          67.7884   92.5413   16.1134 C.3     1  UNL1        0.0063
     25 C          66.6577   92.6749   15.1368 C.3     1  UNL1        0.0409
     26 C          66.6464   93.8070   14.1529 C.3     1  UNL1        0.0063
@<TRIPOS>BOND
     1    24    25    1
     2    25    26    1
     3    25    19    1
     4    19    20   ar
     5    20    21   ar
     6    21    22   ar
     7    22    15    1
     8    15    16   am
     9    16    17    2
    10    16     1    1
    11     1     2    1
    12     2     3   ar
    13     3     4   ar
    14     4     5   ar
    15     5     6   ar
    16     6     7   ar
    17     7     8    1
    18     8     9    1
    19     9    10   ar
    20    10    11   ar
    21    11    12   ar
    22    12    13   ar
    23    13    14   ar
    24    22    23   ar
    25    23    19   ar
    26    14     1    1
    27     7     2   ar
    28    14     9   ar
    29    15    18    1
@<TRIPOS>MOLECULE
*****
 26 29 0 0 0
SMALL
GASTEIGER

@<TRIPOS>ATOM
      1 C          62.8979   88.7137   12.0244 C.3     1  UNL1        0.1270
      2 C          61.8928   88.5684   10.9204 C.ar    1  UNL1        0.0249
      3 C          61.5017   89.7619   10.1003 C.ar    1  UNL1       -0.0005
      4 C          60.4966   89.6165    8.9964 C.ar    1  UNL1       -0.0001
      5 C          59.8826   88.2777    8.7126 C.ar    1  UNL1        0.0031
      6 C          60.2737   87.0842    9.5327 C.ar    1  UNL1        0.0372
      7 C          61.2788   87.2296   10.6366 C.ar    1  UNL1        0.1420
      8 O          61.6699   86.0360   11.4568 O.3     1  UNL1       -0.4541
      9 C          62.6750   86.1814   12.5607 C.ar    1  UNL1        0.1420
     10 C          63.0661   84.9879   13.3809 C.ar    1  UNL1        0.0372
     11 C          64.0712   85.1333   14.4848 C.ar    1  UNL1        0.0031
     12 C          64.6852   86.4721   14.7686 C.ar    1  UNL1       -0.0001
     13 C          64.2941   87.6656   13.9485 C.ar    1  UNL1       -0.0005
     14 C          63.2890   87.5203   12.8445 C.ar    1  UNL1        0.0249
     15 N          64.4689   90.6619   11.3270 N.am    1  UNL1       -0.2636
     16 C          63.5119   90.0526   12.3082 C.2     1  UNL1        0.2355
     17 O          63.1687   90.7820   13.5732 O.2     1  UNL1       -0.2740
     18 H          64.6941   90.1831   10.4968 H       1  UNL1        0.1568
     19 C          65.9046   94.2681   11.3373 C.ar    1  UNL1        0.0671
     20 C          66.1508   93.8541   12.7578 C.ar    1  UNL1        0.0528
     21 S          65.6429   92.4528   12.9269 S.2     1  UNL1       -0.0512
     22 C          65.0829   92.0008   11.6108 C.ar    1  UNL1        0.1652
     23 N          65.2446   93.1227   10.6284 N.ar    1  UNL1       -0.2283
     24 C          67.1990   95.6608    9.5667 C.3     1  UNL1        0.0063
     25 C          66.2566   95.5945   10.7318 C.3     1  UNL1        0.0409
     26 C          65.6663   96.8547   11.2916 C.3     1  UNL1        0.0063
@<TRIPOS>BOND
     1    24    25    1
     2    25    26    1
     3    25    19    1
     4    19    20   ar
     5    20    21   ar
     6    21    22   ar
     7    22    15    1
     8    15    16   am
     9    16    17    2
    10    16     1    1
    11     1     2    1
    12     2     3   ar
    13     3     4   ar
    14     4     5   ar
    15     5     6   ar
    16     6     7   ar
    17     7     8    1
    18     8     9    1
    19     9    10   ar
    20    10    11   ar
    21    11    12   ar
    22    12    13   ar
    23    13    14   ar
    24    22    23   ar
    25    23    19   ar
    26    14     1    1
    27     7     2   ar
    28    14     9   ar
    29    15    18    1
@<TRIPOS>MOLECULE
*****
 26 29 0 0 0
SMALL
GASTEIGER

@<TRIPOS>ATOM
      1 C          63.0709   87.5414   12.5207 C.3     1  UNL1        0.1270
      2 C          62.1712   88.1368   11.4785 C.ar    1  UNL1        0.0249
      3 C          62.0415   89.6266   11.3621 C.ar    1  UNL1       -0.0005
      4 C          61.1418   90.2220   10.3200 C.ar    1  UNL1       -0.0001
      5 C          60.3718   89.3275    9.3942 C.ar    1  UNL1        0.0031
      6 C          60.5015   87.8377    9.5106 C.ar    1  UNL1        0.0372
      7 C          61.4012   87.2423   10.5528 C.ar    1  UNL1        0.1420
      8 O          61.5309   85.7525   10.6692 O.3     1  UNL1       -0.4541
      9 C          62.4306   85.1571   11.7114 C.ar    1  UNL1        0.1420
     10 C          62.5603   83.6672   11.8278 C.ar    1  UNL1        0.0372
     11 C          63.4600   83.0719   12.8700 C.ar    1  UNL1        0.0031
     12 C          64.2299   83.9664   13.7957 C.ar    1  UNL1       -0.0001
     13 C          64.1003   85.4562   13.6793 C.ar    1  UNL1       -0.0005
     14 C          63.2006   86.0516   12.6371 C.ar    1  UNL1        0.0249
     15 N          64.2110   89.8234   13.0132 N.am    1  UNL1       -0.2636
     16 C          63.8408   88.4359   13.4465 C.2     1  UNL1        0.2355
     17 O          64.2406   87.9428   14.8056 O.2     1  UNL1       -0.2740
     18 H          63.9486   90.1470   12.1212 H       1  UNL1        0.1568
     19 C          66.7600   92.0550   14.9075 C.ar    1  UNL1        0.0671
     20 C          65.5718   92.1338   15.8196 C.ar    1  UNL1        0.0528
     21 S          64.4724   91.3074   15.2210 S.2     1  UNL1       -0.0512
     22 C          64.9810   90.7179   13.9390 C.ar    1  UNL1        0.1652
     23 N          66.3948   91.1799   13.7452 N.ar    1  UNL1       -0.2283
     24 C          69.2685   92.3373   14.2929 C.3     1  UNL1        0.0063
     25 C          68.0813   92.7323   15.1203 C.3     1  UNL1        0.0409
     26 C          68.2154   93.8048   16.1604 C.3     1  UNL1        0.0063
@<TRIPOS>BOND
     1    24    25    1
     2    25    26    1
     3    25    19    1
     4    19    20   ar
     5    20    21   ar
     6    21    22   ar
     7    22    15    1
     8    15    16   am
     9    16    17    2
    10    16     1    1
    11     1     2    1
    12     2     3   ar
    13     3     4   ar
    14     4     5   ar
    15     5     6   ar
    16     6     7   ar
    17     7     8    1
    18     8     9    1
    19     9    10   ar
    20    10    11   ar
    21    11    12   ar
    22    12    13   ar
    23    13    14   ar
    24    22    23   ar
    25    23    19   ar
    26    14     1    1
    27     7     2   ar
    28    14     9   ar
    29    15    18    1
