@<TRIPOS>MOLECULE
*****
 30 33 0 0 0
SMALL
GASTEIGER

@<TRIPOS>ATOM
      1 C          64.1104   86.1523   15.6440 C.ar    1  UNL1        0.2220
      2 N          63.3144   86.4299   16.8848 N.ar    1  UNL1       -0.2119
      3 C          62.8273   87.8201   17.1680 C.ar    1  UNL1        0.1049
      4 C          63.1361   88.9326   16.2106 C.ar    1  UNL1        0.0582
      5 C          63.9320   88.6551   14.9698 C.ar    1  UNL1        0.1522
      6 N          64.4191   87.2650   14.6865 N.ar    1  UNL1       -0.1958
      7 N          64.2408   89.7676   14.0123 N.ar    1  UNL1       -0.2894
      8 C          63.5747   90.0024   12.6890 C.ar    1  UNL1        0.0769
      9 C          64.1921   91.2206   12.0688 C.ar    1  UNL1       -0.0055
     10 C          63.8261   91.8161   10.7417 C.3     1  UNL1        0.0324
     11 C          65.2399   91.7388   13.0089 C.ar    1  UNL1        0.0089
     12 C          65.2699   90.8408   14.2100 C.ar    1  UNL1        0.0782
     13 C          66.1056   92.9435   12.7868 C.3     1  UNL1        0.1004
     14 N          66.7290   93.1817   11.4435 N.3     1  UNL1       -0.2668
     15 C          66.6181   94.4372   10.6301 C.3     1  UNL1        0.0750
     16 C          67.3934   94.2376    9.3617 C.3     1  UNL1        0.0480
     17 C          67.9835   92.8588    9.3910 C.3     1  UNL1        0.1278
     18 O          68.8347   92.2412    8.3215 O.3     1  UNL1       -0.3830
     19 C          67.5728   92.2063   10.6777 C.3     1  UNL1        0.1020
     20 H          68.9505   92.8735    7.5950 H       1  UNL1        0.2104
     21 N          64.5975   84.7622   15.3608 N.pl3   1  UNL1       -0.2825
     22 H          65.3715   84.4023   15.8514 H       1  UNL1        0.1551
     23 C          61.1262   81.0938   14.1389 C.3     1  UNL1        0.0311
     24 C          62.1697   82.0862   13.7191 C.ar    1  UNL1       -0.0209
     25 C          62.5212   82.2368   12.2687 C.ar    1  UNL1       -0.0084
     26 C          63.5647   83.2292   11.8489 C.ar    1  UNL1       -0.0209
     27 C          63.9161   83.3798   10.3984 C.3     1  UNL1        0.0311
     28 C          64.2568   84.0710   12.8796 C.ar    1  UNL1        0.0104
     29 C          63.9054   83.9204   14.3300 C.ar    1  UNL1        0.0498
     30 C          62.8618   82.9280   14.7498 C.ar    1  UNL1        0.0104
@<TRIPOS>BOND
     1    23    24    1
     2    24    25   ar
     3    25    26   ar
     4    26    27    1
     5    26    28   ar
     6    28    29   ar
     7    29    21    1
     8    21     1    1
     9     1     2   ar
    10     2     3   ar
    11     3     4   ar
    12     4     5   ar
    13     5     7    1
    14     7     8   ar
    15     8     9   ar
    16     9    10    1
    17     9    11   ar
    18    11    13    1
    19    13    14    1
    20    14    15    1
    21    15    16    1
    22    16    17    1
    23    17    18    1
    24    17    19    1
    25    11    12   ar
    26     5     6   ar
    27    29    30   ar
    28    30    24   ar
    29     6     1   ar
    30    12     7   ar
    31    19    14    1
    32    21    22    1
    33    18    20    1
@<TRIPOS>MOLECULE
*****
 30 33 0 0 0
SMALL
GASTEIGER

@<TRIPOS>ATOM
      1 C          61.4538   87.6458   11.1326 C.ar    1  UNL1        0.2220
      2 N          60.7267   88.1900    9.9388 N.ar    1  UNL1       -0.2119
      3 C          61.0161   89.5796    9.4537 C.ar    1  UNL1        0.1049
      4 C          62.0326   90.4249   10.1622 C.ar    1  UNL1        0.0582
      5 C          62.7597   89.8807   11.3560 C.ar    1  UNL1        0.1522
      6 N          62.4704   88.4912   11.8412 N.ar    1  UNL1       -0.1958
      7 N          63.7762   90.7260   12.0646 N.ar    1  UNL1       -0.2894
      8 C          64.2851   90.5098   13.4590 C.ar    1  UNL1        0.0769
      9 C          65.2857   91.5861   13.7594 C.ar    1  UNL1       -0.0055
     10 C          66.0437   91.7519   15.0431 C.3     1  UNL1        0.0324
     11 C          65.3953   92.4675   12.5506 C.ar    1  UNL1        0.0089
     12 C          64.4624   91.9359   11.5032 C.ar    1  UNL1        0.0782
     13 C          66.2821   93.6695   12.4134 C.3     1  UNL1        0.1004
     14 N          66.8584   94.0276   11.0756 N.3     1  UNL1       -0.2668
     15 C          67.5023   93.0772   10.1099 C.3     1  UNL1        0.0750
     16 C          67.9337   93.8612    8.9062 C.3     1  UNL1        0.0480
     17 C          67.5566   95.2960    9.1277 C.3     1  UNL1        0.1278
     18 O          67.8011   96.4290    8.1756 O.3     1  UNL1       -0.3830
     19 C          66.8919   95.3988   10.4685 C.3     1  UNL1        0.1020
     20 H          68.2464   96.0938    7.3817 H       1  UNL1        0.2104
     21 N          61.1644   86.2563   11.6178 N.pl3   1  UNL1       -0.2825
     22 H          60.2339   85.9688   11.7614 H       1  UNL1        0.1551
     23 C          64.1701   82.3008   10.0944 C.3     1  UNL1        0.0311
     24 C          63.7958   83.3269   11.1225 C.ar    1  UNL1       -0.0209
     25 C          64.5499   83.4014   12.4170 C.ar    1  UNL1       -0.0084
     26 C          64.1755   84.4275   13.4451 C.ar    1  UNL1       -0.0209
     27 C          64.9297   84.5020   14.7396 C.3     1  UNL1        0.0311
     28 C          63.0471   85.3791   13.1787 C.ar    1  UNL1        0.0104
     29 C          62.2930   85.3046   11.8842 C.ar    1  UNL1        0.0498
     30 C          62.6673   84.2785   10.8561 C.ar    1  UNL1        0.0104
@<TRIPOS>BOND
     1    23    24    1
     2    24    25   ar
     3    25    26   ar
     4    26    27    1
     5    26    28   ar
     6    28    29   ar
     7    29    21    1
     8    21     1    1
     9     1     2   ar
    10     2     3   ar
    11     3     4   ar
    12     4     5   ar
    13     5     7    1
    14     7     8   ar
    15     8     9   ar
    16     9    10    1
    17     9    11   ar
    18    11    13    1
    19    13    14    1
    20    14    15    1
    21    15    16    1
    22    16    17    1
    23    17    18    1
    24    17    19    1
    25    11    12   ar
    26     5     6   ar
    27    29    30   ar
    28    30    24   ar
    29     6     1   ar
    30    12     7   ar
    31    19    14    1
    32    21    22    1
    33    18    20    1
@<TRIPOS>MOLECULE
*****
 30 33 0 0 0
SMALL
GASTEIGER

@<TRIPOS>ATOM
      1 C          61.9289   87.1327   11.2286 C.ar    1  UNL1        0.2220
      2 N          60.5090   87.5992   11.1010 N.ar    1  UNL1       -0.2119
      3 C          60.1466   89.0080   11.4671 C.ar    1  UNL1        0.1049
      4 C          61.2041   89.9503   11.9607 C.ar    1  UNL1        0.0582
      5 C          62.6240   89.4839   12.0883 C.ar    1  UNL1        0.1522
      6 N          62.9864   88.0752   11.7222 N.ar    1  UNL1       -0.1958
      7 N          63.6815   90.4262   12.5819 N.ar    1  UNL1       -0.2894
      8 C          64.3855   90.3471   13.9041 C.ar    1  UNL1        0.0769
      9 C          65.3598   91.4851   13.9793 C.ar    1  UNL1       -0.0055
     10 C          66.2751   91.7876   15.1285 C.3     1  UNL1        0.0324
     11 C          65.2579   92.2676   12.7036 C.ar    1  UNL1        0.0089
     12 C          64.2207   91.6131   11.8399 C.ar    1  UNL1        0.0782
     13 C          66.0536   93.4899   12.3530 C.3     1  UNL1        0.1004
     14 N          66.7979   93.5527   11.0522 N.3     1  UNL1       -0.2668
     15 C          66.9655   94.7689   10.1901 C.3     1  UNL1        0.0750
     16 C          67.7764   94.3782    8.9903 C.3     1  UNL1        0.0480
     17 C          68.1100   92.9207    9.1107 C.3     1  UNL1        0.1278
     18 O          68.9082   92.1150    8.1291 O.3     1  UNL1       -0.3830
     19 C          67.5052   92.4106   10.3851 C.3     1  UNL1        0.1020
     20 H          69.1824   92.6827    7.3920 H       1  UNL1        0.2104
     21 N          62.2914   85.7240   10.8625 N.pl3   1  UNL1       -0.2825
     22 H          62.2761   85.4410    9.9197 H       1  UNL1        0.1551
     23 C          64.0835   84.7616   15.6439 C.3     1  UNL1        0.0311
     24 C          63.5731   84.2653   14.3236 C.ar    1  UNL1       -0.0209
     25 C          63.4484   82.7916   14.0737 C.ar    1  UNL1       -0.0084
     26 C          62.9380   82.2953   12.7534 C.ar    1  UNL1       -0.0209
     27 C          62.8133   80.8215   12.5035 C.3     1  UNL1        0.0311
     28 C          62.5524   83.2727   11.6830 C.ar    1  UNL1        0.0104
     29 C          62.6771   84.7465   11.9329 C.ar    1  UNL1        0.0498
     30 C          63.1874   85.2428   13.2532 C.ar    1  UNL1        0.0104
@<TRIPOS>BOND
     1    23    24    1
     2    24    25   ar
     3    25    26   ar
     4    26    27    1
     5    26    28   ar
     6    28    29   ar
     7    29    21    1
     8    21     1    1
     9     1     2   ar
    10     2     3   ar
    11     3     4   ar
    12     4     5   ar
    13     5     7    1
    14     7     8   ar
    15     8     9   ar
    16     9    10    1
    17     9    11   ar
    18    11    13    1
    19    13    14    1
    20    14    15    1
    21    15    16    1
    22    16    17    1
    23    17    18    1
    24    17    19    1
    25    11    12   ar
    26     5     6   ar
    27    29    30   ar
    28    30    24   ar
    29     6     1   ar
    30    12     7   ar
    31    19    14    1
    32    21    22    1
    33    18    20    1
@<TRIPOS>MOLECULE
*****
 30 33 0 0 0
SMALL
GASTEIGER

@<TRIPOS>ATOM
      1 C          60.9191   89.0956    9.3220 C.ar    1  UNL1        0.2220
      2 N          59.9557   88.7946    8.2125 N.ar    1  UNL1       -0.2119
      3 C          59.7355   87.3770    7.7743 C.ar    1  UNL1        0.1049
      4 C          60.4787   86.2604    8.4458 C.ar    1  UNL1        0.0582
      5 C          61.4422   86.5614    9.5553 C.ar    1  UNL1        0.1522
      6 N          61.6624   87.9790    9.9935 N.ar    1  UNL1       -0.1958
      7 N          62.1854   85.4449   10.2268 N.ar    1  UNL1       -0.2894
      8 C          62.9538   84.3569    9.5368 C.ar    1  UNL1        0.0769
      9 C          63.5341   83.4599   10.5897 C.ar    1  UNL1       -0.0055
     10 C          64.3762   82.2430   10.3448 C.3     1  UNL1        0.0324
     11 C          63.1243   83.9935   11.9304 C.ar    1  UNL1        0.0089
     12 C          62.2909   85.2202   11.7061 C.ar    1  UNL1        0.0782
     13 C          63.4849   83.4038   13.2617 C.3     1  UNL1        0.1004
     14 N          63.4851   84.2664   14.4888 N.3     1  UNL1       -0.2668
     15 C          64.6039   85.1582   14.9395 C.3     1  UNL1        0.0750
     16 C          64.1768   85.8316   16.2098 C.3     1  UNL1        0.0480
     17 C          62.7940   85.3561   16.5444 C.3     1  UNL1        0.1278
     18 O          61.9815   85.7746   17.7338 O.3     1  UNL1       -0.3830
     19 C          62.3666   84.3887   15.4807 C.3     1  UNL1        0.1020
     20 H          62.4885   86.4084   18.2649 H       1  UNL1        0.2104
     21 N          61.1393   90.5132    9.7602 N.pl3   1  UNL1       -0.2825
     22 H          60.5265   91.2224    9.4589 H       1  UNL1        0.1551
     23 C          65.7190   92.8488   10.5162 C.3     1  UNL1        0.0311
     24 C          64.5831   92.0181   11.0354 C.ar    1  UNL1       -0.0209
     25 C          64.6010   91.5244   12.4517 C.ar    1  UNL1       -0.0084
     26 C          63.4651   90.6936   12.9708 C.ar    1  UNL1       -0.0209
     27 C          63.4831   90.2000   14.3872 C.3     1  UNL1        0.0311
     28 C          62.3112   90.3566   12.0737 C.ar    1  UNL1        0.0104
     29 C          62.2933   90.8502   10.6574 C.ar    1  UNL1        0.0498
     30 C          63.4292   91.6810   10.1382 C.ar    1  UNL1        0.0104
@<TRIPOS>BOND
     1    23    24    1
     2    24    25   ar
     3    25    26   ar
     4    26    27    1
     5    26    28   ar
     6    28    29   ar
     7    29    21    1
     8    21     1    1
     9     1     2   ar
    10     2     3   ar
    11     3     4   ar
    12     4     5   ar
    13     5     7    1
    14     7     8   ar
    15     8     9   ar
    16     9    10    1
    17     9    11   ar
    18    11    13    1
    19    13    14    1
    20    14    15    1
    21    15    16    1
    22    16    17    1
    23    17    18    1
    24    17    19    1
    25    11    12   ar
    26     5     6   ar
    27    29    30   ar
    28    30    24   ar
    29     6     1   ar
    30    12     7   ar
    31    19    14    1
    32    21    22    1
    33    18    20    1
@<TRIPOS>MOLECULE
*****
 30 33 0 0 0
SMALL
GASTEIGER

@<TRIPOS>ATOM
      1 C          63.9579   85.9476   15.8390 C.ar    1  UNL1        0.2220
      2 N          63.5431   86.4774   17.1796 N.ar    1  UNL1       -0.2119
      3 C          63.1226   87.9102   17.3225 C.ar    1  UNL1        0.1049
      4 C          63.1169   88.8132   16.1248 C.ar    1  UNL1        0.0582
      5 C          63.5317   88.2834   14.7842 C.ar    1  UNL1        0.1522
      6 N          63.9522   86.8507   14.6412 N.ar    1  UNL1       -0.1958
      7 N          63.5260   89.1864   13.5865 N.ar    1  UNL1       -0.2894
      8 C          64.3570   90.4227   13.4104 C.ar    1  UNL1        0.0769
      9 C          64.0330   91.0120   12.0696 C.ar    1  UNL1       -0.0055
     10 C          64.6345   92.2551   11.4842 C.3     1  UNL1        0.0324
     11 C          63.0016   90.1399   11.4171 C.ar    1  UNL1        0.0089
     12 C          62.6883   89.0116   12.3545 C.ar    1  UNL1        0.0782
     13 C          62.3908   90.3578   10.0645 C.3     1  UNL1        0.1004
     14 N          61.5382   89.2900    9.4457 N.3     1  UNL1       -0.2668
     15 C          61.8114   87.8153    9.4766 C.3     1  UNL1        0.0750
     16 C          60.7049   87.1234    8.7374 C.3     1  UNL1        0.0480
     17 C          59.7477   88.1702    8.2495 C.3     1  UNL1        0.1278
     18 O          58.4955   87.9216    7.4621 O.3     1  UNL1       -0.3830
     19 C          60.2628   89.5093    8.6873 C.3     1  UNL1        0.1020
     20 H          58.3921   86.9690    7.3113 H       1  UNL1        0.2104
     21 N          64.3784   84.5149   15.6961 N.pl3   1  UNL1       -0.2825
     22 H          65.0243   84.1260   16.3291 H       1  UNL1        0.1551
     23 C          60.9847   80.9482   14.0344 C.3     1  UNL1        0.0311
     24 C          62.1178   81.8914   13.7579 C.ar    1  UNL1       -0.0209
     25 C          62.6872   81.9943   12.3740 C.ar    1  UNL1       -0.0084
     26 C          63.8203   82.9375   12.0974 C.ar    1  UNL1       -0.0209
     27 C          64.3896   83.0405   10.7135 C.3     1  UNL1        0.0311
     28 C          64.3840   83.7777   13.2048 C.ar    1  UNL1        0.0104
     29 C          63.8146   83.6747   14.5886 C.ar    1  UNL1        0.0498
     30 C          62.6815   82.7315   14.8652 C.ar    1  UNL1        0.0104
@<TRIPOS>BOND
     1    23    24    1
     2    24    25   ar
     3    25    26   ar
     4    26    27    1
     5    26    28   ar
     6    28    29   ar
     7    29    21    1
     8    21     1    1
     9     1     2   ar
    10     2     3   ar
    11     3     4   ar
    12     4     5   ar
    13     5     7    1
    14     7     8   ar
    15     8     9   ar
    16     9    10    1
    17     9    11   ar
    18    11    13    1
    19    13    14    1
    20    14    15    1
    21    15    16    1
    22    16    17    1
    23    17    18    1
    24    17    19    1
    25    11    12   ar
    26     5     6   ar
    27    29    30   ar
    28    30    24   ar
    29     6     1   ar
    30    12     7   ar
    31    19    14    1
    32    21    22    1
    33    18    20    1
@<TRIPOS>MOLECULE
*****
 30 33 0 0 0
SMALL
GASTEIGER

@<TRIPOS>ATOM
      1 C          61.4977   89.6512    9.7367 C.ar    1  UNL1        0.2220
      2 N          60.3622   89.5299    8.7640 N.ar    1  UNL1       -0.2119
      3 C          59.9003   88.1750    8.3156 C.ar    1  UNL1        0.1049
      4 C          60.5739   86.9415    8.8399 C.ar    1  UNL1        0.0582
      5 C          61.7094   87.0629    9.8125 C.ar    1  UNL1        0.1522
      6 N          62.1712   88.4177   10.2609 N.ar    1  UNL1       -0.1958
      7 N          62.3829   85.8294   10.3367 N.ar    1  UNL1       -0.2894
      8 C          63.1354   84.8210    9.5200 C.ar    1  UNL1        0.0769
      9 C          63.6398   83.7561   10.4482 C.ar    1  UNL1       -0.0055
     10 C          64.4438   82.5524   10.0552 C.3     1  UNL1        0.0324
     11 C          63.1991   84.1064   11.8386 C.ar    1  UNL1        0.0089
     12 C          62.4223   85.3878   11.7697 C.ar    1  UNL1        0.0782
     13 C          63.4849   83.3144   13.0800 C.3     1  UNL1        0.1004
     14 N          62.6941   82.0751   13.3777 N.3     1  UNL1       -0.2668
     15 C          63.1361   80.6645   13.1222 C.3     1  UNL1        0.0750
     16 C          62.0376   79.7464   13.5697 C.3     1  UNL1        0.0480
     17 C          60.9167   80.5894   14.1017 C.3     1  UNL1        0.1278
     18 O          59.6181   80.0822   14.6552 O.3     1  UNL1       -0.3830
     19 C          61.3225   82.0286   13.9830 C.3     1  UNL1        0.1020
     20 H          59.6077   79.1129   14.6188 H       1  UNL1        0.2104
     21 N          61.9596   91.0060   10.1851 N.pl3   1  UNL1       -0.2825
     22 H          61.5267   91.8160    9.8304 H       1  UNL1        0.1551
     23 C          64.0120   89.8710   14.8218 C.3     1  UNL1        0.0311
     24 C          64.1071   90.5592   13.4924 C.ar    1  UNL1       -0.0209
     25 C          65.3235   91.3682   13.1520 C.ar    1  UNL1       -0.0084
     26 C          65.4186   92.0565   11.8226 C.ar    1  UNL1       -0.0209
     27 C          66.6351   92.8655   11.4822 C.3     1  UNL1        0.0311
     28 C          64.2973   91.9357   10.8337 C.ar    1  UNL1        0.0104
     29 C          63.0809   91.1268   11.1741 C.ar    1  UNL1        0.0498
     30 C          62.9858   90.4385   12.5035 C.ar    1  UNL1        0.0104
@<TRIPOS>BOND
     1    23    24    1
     2    24    25   ar
     3    25    26   ar
     4    26    27    1
     5    26    28   ar
     6    28    29   ar
     7    29    21    1
     8    21     1    1
     9     1     2   ar
    10     2     3   ar
    11     3     4   ar
    12     4     5   ar
    13     5     7    1
    14     7     8   ar
    15     8     9   ar
    16     9    10    1
    17     9    11   ar
    18    11    13    1
    19    13    14    1
    20    14    15    1
    21    15    16    1
    22    16    17    1
    23    17    18    1
    24    17    19    1
    25    11    12   ar
    26     5     6   ar
    27    29    30   ar
    28    30    24   ar
    29     6     1   ar
    30    12     7   ar
    31    19    14    1
    32    21    22    1
    33    18    20    1
@<TRIPOS>MOLECULE
*****
 30 33 0 0 0
SMALL
GASTEIGER

@<TRIPOS>ATOM
      1 C          63.2724   90.7265   11.8698 C.ar    1  UNL1        0.2220
      2 N          64.3154   91.7707   12.1376 N.ar    1  UNL1       -0.2119
      3 C          65.1625   91.6852   13.3726 C.ar    1  UNL1        0.1049
      4 C          64.9666   90.5556   14.3398 C.ar    1  UNL1        0.0582
      5 C          63.9235   89.5113   14.0720 C.ar    1  UNL1        0.1522
      6 N          63.0764   89.5968   12.8371 N.ar    1  UNL1       -0.1958
      7 N          63.7275   88.3817   15.0392 N.ar    1  UNL1       -0.2894
      8 C          63.2229   88.5034   16.4465 C.ar    1  UNL1        0.0769
      9 C          63.1852   87.1289   17.0460 C.ar    1  UNL1       -0.0055
     10 C          62.7437   86.7859   18.4378 C.3     1  UNL1        0.0324
     11 C          63.6667   86.1577   16.0091 C.ar    1  UNL1        0.0089
     12 C          64.0018   86.9320   14.7689 C.ar    1  UNL1        0.0782
     13 C          63.7911   84.6729   16.1821 C.3     1  UNL1        0.1004
     14 N          63.7254   83.7703   14.9859 N.3     1  UNL1       -0.2668
     15 C          62.6676   82.7420   14.7143 C.3     1  UNL1        0.0750
     16 C          62.9943   82.0738   13.4118 C.3     1  UNL1        0.0480
     17 C          64.2541   82.6890   12.8783 C.3     1  UNL1        0.1278
     18 O          64.9413   82.3203   11.5970 O.3     1  UNL1       -0.3830
     19 C          64.7059   83.7375   13.8512 C.3     1  UNL1        0.1020
     20 H          64.4445   81.6140   11.1553 H       1  UNL1        0.2104
     21 N          62.4253   90.8119   10.6349 N.pl3   1  UNL1       -0.2825
     22 H          62.2488   91.6864   10.2186 H       1  UNL1        0.1551
     23 C          62.3125   85.6303   10.2631 C.3     1  UNL1        0.0311
     24 C          61.7908   86.9741    9.8483 C.ar    1  UNL1       -0.0209
     25 C          60.6911   87.0709    8.8328 C.ar    1  UNL1       -0.0084
     26 C          60.1695   88.4147    8.4180 C.ar    1  UNL1       -0.0209
     27 C          59.0697   88.5115    7.4024 C.3     1  UNL1        0.0311
     28 C          60.7475   89.6617    9.0187 C.ar    1  UNL1        0.0104
     29 C          61.8472   89.5649   10.0342 C.ar    1  UNL1        0.0498
     30 C          62.3689   88.2211   10.4490 C.ar    1  UNL1        0.0104
@<TRIPOS>BOND
     1    23    24    1
     2    24    25   ar
     3    25    26   ar
     4    26    27    1
     5    26    28   ar
     6    28    29   ar
     7    29    21    1
     8    21     1    1
     9     1     2   ar
    10     2     3   ar
    11     3     4   ar
    12     4     5   ar
    13     5     7    1
    14     7     8   ar
    15     8     9   ar
    16     9    10    1
    17     9    11   ar
    18    11    13    1
    19    13    14    1
    20    14    15    1
    21    15    16    1
    22    16    17    1
    23    17    18    1
    24    17    19    1
    25    11    12   ar
    26     5     6   ar
    27    29    30   ar
    28    30    24   ar
    29     6     1   ar
    30    12     7   ar
    31    19    14    1
    32    21    22    1
    33    18    20    1
@<TRIPOS>MOLECULE
*****
 30 33 0 0 0
SMALL
GASTEIGER

@<TRIPOS>ATOM
      1 C          63.3036   88.5634   16.5689 C.ar    1  UNL1        0.2220
      2 N          62.9345   88.0944   17.9450 N.ar    1  UNL1       -0.2119
      3 C          62.7573   86.6297   18.2158 C.ar    1  UNL1        0.1049
      4 C          62.9493   85.6340   17.1105 C.ar    1  UNL1        0.0582
      5 C          63.3185   86.1030   15.7344 C.ar    1  UNL1        0.1522
      6 N          63.4957   87.5676   15.4635 N.ar    1  UNL1       -0.1958
      7 N          63.5105   85.1073   14.6291 N.ar    1  UNL1       -0.2894
      8 C          63.8068   83.6467   14.7997 C.ar    1  UNL1        0.0769
      9 C          63.9194   83.0341   13.4352 C.ar    1  UNL1       -0.0055
     10 C          64.2080   81.5927   13.1370 C.3     1  UNL1        0.0324
     11 C          63.6926   84.1160   12.4212 C.ar    1  UNL1        0.0089
     12 C          63.4400   85.3973   13.1591 C.ar    1  UNL1        0.0782
     13 C          63.7147   83.9464   10.9310 C.3     1  UNL1        0.1004
     14 N          62.8453   84.8090   10.0650 N.3     1  UNL1       -0.2668
     15 C          63.0389   85.0668    8.6000 C.3     1  UNL1        0.0750
     16 C          61.9429   85.9823    8.1416 C.3     1  UNL1        0.0480
     17 C          61.0717   86.2906    9.3232 C.3     1  UNL1        0.1278
     18 O          59.8563   87.1696    9.3171 O.3     1  UNL1       -0.3830
     19 C          61.6295   85.5654   10.5119 C.3     1  UNL1        0.1020
     20 H          59.7124   87.5162    8.4226 H       1  UNL1        0.2104
     21 N          63.4808   90.0280   16.2980 N.pl3   1  UNL1       -0.2825
     22 H          63.3241   90.6837   17.0154 H       1  UNL1        0.1551
     23 C          62.5214   90.4821   11.2114 C.3     1  UNL1        0.0311
     24 C          63.4170   90.7206   12.3908 C.ar    1  UNL1       -0.0209
     25 C          64.7286   91.4246   12.2063 C.ar    1  UNL1       -0.0084
     26 C          65.6243   91.6631   13.3856 C.ar    1  UNL1       -0.0209
     27 C          66.9359   92.3672   13.2011 C.3     1  UNL1        0.0311
     28 C          65.2083   91.1976   14.7495 C.ar    1  UNL1        0.0104
     29 C          63.8968   90.4936   14.9341 C.ar    1  UNL1        0.0498
     30 C          63.0011   90.2551   13.7547 C.ar    1  UNL1        0.0104
@<TRIPOS>BOND
     1    23    24    1
     2    24    25   ar
     3    25    26   ar
     4    26    27    1
     5    26    28   ar
     6    28    29   ar
     7    29    21    1
     8    21     1    1
     9     1     2   ar
    10     2     3   ar
    11     3     4   ar
    12     4     5   ar
    13     5     7    1
    14     7     8   ar
    15     8     9   ar
    16     9    10    1
    17     9    11   ar
    18    11    13    1
    19    13    14    1
    20    14    15    1
    21    15    16    1
    22    16    17    1
    23    17    18    1
    24    17    19    1
    25    11    12   ar
    26     5     6   ar
    27    29    30   ar
    28    30    24   ar
    29     6     1   ar
    30    12     7   ar
    31    19    14    1
    32    21    22    1
    33    18    20    1
@<TRIPOS>MOLECULE
*****
 30 33 0 0 0
SMALL
GASTEIGER

@<TRIPOS>ATOM
      1 C          62.0640   89.6381   10.3649 C.ar    1  UNL1        0.2220
      2 N          61.1069   89.1260    9.3296 N.ar    1  UNL1       -0.2119
      3 C          60.7803   87.6632    9.2684 C.ar    1  UNL1        0.1049
      4 C          61.4108   86.7126   10.2424 C.ar    1  UNL1        0.0582
      5 C          62.3679   87.2246   11.2776 C.ar    1  UNL1        0.1522
      6 N          62.6945   88.6873   11.3389 N.ar    1  UNL1       -0.1958
      7 N          62.9985   86.2740   12.2516 N.ar    1  UNL1       -0.2894
      8 C          63.5975   86.6387   13.5776 C.ar    1  UNL1        0.0769
      9 C          64.1100   85.3818   14.2161 C.ar    1  UNL1       -0.0055
     10 C          64.7860   85.2836   15.5515 C.3     1  UNL1        0.0324
     11 C          63.8276   84.2404   13.2847 C.ar    1  UNL1        0.0089
     12 C          63.1407   84.7918   12.0706 C.ar    1  UNL1        0.0782
     13 C          64.1717   82.8003   13.5253 C.3     1  UNL1        0.1004
     14 N          63.0824   81.7724   13.6072 N.3     1  UNL1       -0.2668
     15 C          63.1759   80.3495   13.1416 C.3     1  UNL1        0.0750
     16 C          61.8596   79.6847   13.4157 C.3     1  UNL1        0.0480
     17 C          60.9525   80.6966   14.0507 C.3     1  UNL1        0.1278
     18 O          59.5380   80.4597   14.4902 O.3     1  UNL1       -0.3830
     19 C          61.7083   81.9869   14.1690 C.3     1  UNL1        0.1020
     20 H          59.2902   79.5412   14.3011 H       1  UNL1        0.2104
     21 N          62.3905   91.1008   10.4261 N.pl3   1  UNL1       -0.2825
     22 H          61.7717   91.7600   10.0367 H       1  UNL1        0.1551
     23 C          66.9906   93.4999   10.1377 C.3     1  UNL1        0.0311
     24 C          65.9600   92.7586   10.9366 C.ar    1  UNL1       -0.0209
     25 C          66.1987   92.4757   12.3902 C.ar    1  UNL1       -0.0084
     26 C          65.1680   91.7344   13.1891 C.ar    1  UNL1       -0.0209
     27 C          65.4068   91.4514   14.6427 C.3     1  UNL1        0.0311
     28 C          63.8987   91.2761   12.5344 C.ar    1  UNL1        0.0104
     29 C          63.6600   91.5591   11.0809 C.ar    1  UNL1        0.0498
     30 C          64.6906   92.3003   10.2820 C.ar    1  UNL1        0.0104
@<TRIPOS>BOND
     1    23    24    1
     2    24    25   ar
     3    25    26   ar
     4    26    27    1
     5    26    28   ar
     6    28    29   ar
     7    29    21    1
     8    21     1    1
     9     1     2   ar
    10     2     3   ar
    11     3     4   ar
    12     4     5   ar
    13     5     7    1
    14     7     8   ar
    15     8     9   ar
    16     9    10    1
    17     9    11   ar
    18    11    13    1
    19    13    14    1
    20    14    15    1
    21    15    16    1
    22    16    17    1
    23    17    18    1
    24    17    19    1
    25    11    12   ar
    26     5     6   ar
    27    29    30   ar
    28    30    24   ar
    29     6     1   ar
    30    12     7   ar
    31    19    14    1
    32    21    22    1
    33    18    20    1
