@<TRIPOS>MOLECULE
*****
 38 42 0 0 0
SMALL
GASTEIGER

@<TRIPOS>ATOM
      1 C          60.4571   90.5343   11.5524 C.3     1  UNL1        0.0265
      2 C          61.8342   89.9492   11.6581 C.3     1  UNL1        0.1011
      3 N          63.0297   90.8526   11.7274 N.am    1  UNL1       -0.2438
      4 C          63.5671   91.4826   10.4768 C.3     1  UNL1        0.1009
      5 C          64.7626   92.3860   10.5461 C.3     1  UNL1        0.0662
      6 C          65.4206   92.6593   11.8660 C.3     1  UNL1        0.1600
      7 O          64.8832   92.0292   13.1167 O.3     1  UNL1       -0.4374
      8 C          63.6877   91.1259   13.0474 C.2     1  UNL1        0.4051
      9 O          63.1502   90.4958   14.2981 O.2     1  UNL1       -0.2262
     10 C          66.2917   93.4837   10.9651 C.ar    1  UNL1        0.0138
     11 C          67.2127   92.8107    9.9910 C.ar    1  UNL1       -0.0010
     12 C          68.0837   93.6351    9.0901 C.ar    1  UNL1       -0.0002
     13 C          68.0337   95.1325    9.1633 C.ar    1  UNL1       -0.0000
     14 C          67.1127   95.8055   10.1373 C.ar    1  UNL1       -0.0002
     15 C          66.2417   94.9811   11.0383 C.ar    1  UNL1       -0.0010
     16 C          66.3812   93.2189   12.8731 C.3     1  UNL1        0.0714
     17 C          67.0317   92.3110   13.8743 C.3     1  UNL1        0.0922
     18 C          67.8510   91.6921   12.7807 C.3     1  UNL1        0.0294
     19 C          66.2125   92.9298   14.9678 C.3     1  UNL1        0.0294
     20 O          67.6823   91.4030   14.8754 O.3     1  UNL1       -0.3866
     21 H          68.3220   90.8300   14.4244 H       1  UNL1        0.2102
     22 C          62.0159   88.4606   11.6945 C.ar    1  UNL1       -0.0042
     23 C          61.1040   87.5741   10.8992 C.ar    1  UNL1       -0.0027
     24 C          61.2857   86.0857   10.9356 C.ar    1  UNL1       -0.0002
     25 C          62.3793   85.4837   11.7673 C.ar    1  UNL1        0.0014
     26 C          63.2912   86.3702   12.5625 C.ar    1  UNL1       -0.0002
     27 C          63.1095   87.8587   12.5261 C.ar    1  UNL1       -0.0027
     28 C          62.5609   83.9951   11.8037 C.ar    1  UNL1        0.0175
     29 C          63.2474   83.2954   10.6683 C.ar    1  UNL1        0.0064
     30 C          63.4291   81.8068   10.7047 C.ar    1  UNL1        0.0608
     31 C          62.9242   81.0181   11.8764 C.ar    1  UNL1        0.2610
     32 O          63.1059   79.5296   11.9129 O.2     1  UNL1       -0.2670
     33 N          62.2377   81.7179   13.0118 N.ar    1  UNL1       -0.2942
     34 C          62.0561   83.2064   12.9754 C.ar    1  UNL1        0.0783
     35 C          61.7329   80.9292   14.1836 C.3     1  UNL1        0.1090
     36 C          60.3202   80.4250   14.1957 C.3     1  UNL1        0.0227
     37 C          58.8450   80.6927   14.1510 C.3     1  UNL1        0.0020
     38 C          59.3486   79.2842   14.2614 C.3     1  UNL1        0.0020
@<TRIPOS>BOND
     1     2     1    1
     2     2    22    1
     3    22    23   ar
     4    23    24   ar
     5    24    25   ar
     6    25    28    1
     7    28    29   ar
     8    29    30   ar
     9    30    31   ar
    10    31    32    2
    11    31    33   ar
    12    33    35    1
    13    35    36    1
    14    36    37    1
    15    37    38    1
    16    33    34   ar
    17    25    26   ar
    18    26    27   ar
    19     2     3    1
    20     3     4    1
    21     4     5    1
    22     5     6    1
    23     6    16    1
    24    16    17    1
    25    17    18    1
    26    17    19    1
    27    17    20    1
    28     6    10    1
    29    10    11   ar
    30    11    12   ar
    31    12    13   ar
    32    13    14   ar
    33    14    15   ar
    34     6     7    1
    35     7     8    1
    36     8     9    2
    37    27    22   ar
    38     8     3   am
    39    34    28   ar
    40    15    10   ar
    41    38    36    1
    42    20    21    1
@<TRIPOS>MOLECULE
*****
 38 42 0 0 0
SMALL
GASTEIGER

@<TRIPOS>ATOM
      1 C          60.9435   90.3907   11.5829 C.3     1  UNL1        0.0265
      2 C          62.2535   89.7126   11.8553 C.3     1  UNL1        0.1011
      3 N          63.4778   90.5321   12.1370 N.am    1  UNL1       -0.2438
      4 C          64.1653   90.4210   13.4655 C.3     1  UNL1        0.1009
      5 C          65.3897   91.2404   13.7473 C.3     1  UNL1        0.0662
      6 C          65.9266   92.1710   12.7006 C.3     1  UNL1        0.1600
      7 O          65.2391   92.2821   11.3720 O.3     1  UNL1       -0.4374
      8 C          64.0148   91.4627   11.0902 C.2     1  UNL1        0.4051
      9 O          63.3273   91.5738    9.7617 O.2     1  UNL1       -0.2262
     10 C          66.9204   92.4121   13.7980 C.ar    1  UNL1        0.0138
     11 C          66.4781   93.0427   15.0851 C.ar    1  UNL1       -0.0010
     12 C          67.4719   93.2838   16.1825 C.ar    1  UNL1       -0.0002
     13 C          68.9080   92.8944   15.9927 C.ar    1  UNL1       -0.0000
     14 C          69.3503   92.2639   14.7055 C.ar    1  UNL1       -0.0002
     15 C          68.3565   92.0227   13.6081 C.ar    1  UNL1       -0.0010
     16 C          66.8087   93.1853   12.0349 C.3     1  UNL1        0.0714
     17 C          66.5166   93.6276   10.6317 C.3     1  UNL1        0.0922
     18 C          65.6959   94.7661   11.1614 C.3     1  UNL1        0.0294
     19 C          67.3371   92.4892   10.1021 C.3     1  UNL1        0.0294
     20 O          66.2244   94.0700    9.2286 O.3     1  UNL1       -0.3866
     21 H          65.6611   94.8594    9.2491 H       1  UNL1        0.2102
     22 C          62.3391   88.2151   11.8458 C.ar    1  UNL1       -0.0042
     23 C          63.2895   87.5123   12.7693 C.ar    1  UNL1       -0.0027
     24 C          63.3751   86.0148   12.7598 C.ar    1  UNL1       -0.0002
     25 C          62.5103   85.2201   11.8268 C.ar    1  UNL1        0.0014
     26 C          61.5599   85.9228   10.9033 C.ar    1  UNL1       -0.0002
     27 C          61.4743   87.4203   10.9128 C.ar    1  UNL1       -0.0027
     28 C          62.5959   83.7225   11.8173 C.ar    1  UNL1        0.0175
     29 C          63.2399   83.0154   10.6618 C.ar    1  UNL1        0.0064
     30 C          63.3255   81.5178   10.6524 C.ar    1  UNL1        0.0608
     31 C          62.7672   80.7274   11.7985 C.ar    1  UNL1        0.2610
     32 O          62.8528   79.2299   11.7891 O.2     1  UNL1       -0.2670
     33 N          62.1232   81.4346   12.9540 N.ar    1  UNL1       -0.2942
     34 C          62.0376   82.9321   12.9635 C.ar    1  UNL1        0.0783
     35 C          61.5649   80.6442   14.1002 C.3     1  UNL1        0.1090
     36 C          60.0899   80.3852   14.1846 C.3     1  UNL1        0.0227
     37 C          58.6763   80.8539   14.0050 C.3     1  UNL1        0.0020
     38 C          58.9486   79.4681   14.5103 C.3     1  UNL1        0.0020
@<TRIPOS>BOND
     1     2     1    1
     2     2    22    1
     3    22    23   ar
     4    23    24   ar
     5    24    25   ar
     6    25    28    1
     7    28    29   ar
     8    29    30   ar
     9    30    31   ar
    10    31    32    2
    11    31    33   ar
    12    33    35    1
    13    35    36    1
    14    36    37    1
    15    37    38    1
    16    33    34   ar
    17    25    26   ar
    18    26    27   ar
    19     2     3    1
    20     3     4    1
    21     4     5    1
    22     5     6    1
    23     6    16    1
    24    16    17    1
    25    17    18    1
    26    17    19    1
    27    17    20    1
    28     6    10    1
    29    10    11   ar
    30    11    12   ar
    31    12    13   ar
    32    13    14   ar
    33    14    15   ar
    34     6     7    1
    35     7     8    1
    36     8     9    2
    37    27    22   ar
    38     8     3   am
    39    34    28   ar
    40    15    10   ar
    41    38    36    1
    42    20    21    1
