@<TRIPOS>MOLECULE
*****
 30 33 0 0 0
SMALL
GASTEIGER

@<TRIPOS>ATOM
      1 N          62.4512   87.4886   11.7427 N.ar    1  UNL1       -0.2644
      2 C          62.1460   88.1660   10.4397 C.ar    1  UNL1        0.2037
      3 N          62.6880   89.5368   10.1620 N.ar    1  UNL1       -0.2148
      4 C          63.5353   90.2302   11.1874 C.ar    1  UNL1        0.0895
      5 C          64.0772   91.6010   10.9097 C.ar    1  UNL1        0.0307
      6 C          64.9245   92.2943   11.9351 C.ar    1  UNL1        0.0592
      7 CL         65.4665   93.6652   11.6574 Cl      1  UNL1       -0.0822
      8 C          65.2297   91.6169   13.2381 C.ar    1  UNL1        0.0116
      9 C          64.6878   90.2461   13.5158 C.ar    1  UNL1        0.0071
     10 C          63.8405   89.5528   12.4904 C.ar    1  UNL1        0.0740
     11 C          63.2985   88.1819   12.7680 C.ar    1  UNL1        0.2645
     12 O          63.6038   87.5044   14.0711 O.2     1  UNL1       -0.2668
     13 N          61.2987   87.4726    9.4143 N.pl3   1  UNL1       -0.2781
     14 C          59.8393   87.8002    9.3015 C.3     1  UNL1        0.0937
     15 C          58.9921   87.1068    8.2761 C.3     1  UNL1        0.0229
     16 C          59.6043   86.0858    7.3636 C.3     1  UNL1        0.0190
     17 C          61.0637   85.7581    7.4764 C.3     1  UNL1        0.0710
     18 N          61.6758   84.7371    6.5639 N.3     1  UNL1       -0.3208
     19 C          61.9109   86.4515    8.5017 C.3     1  UNL1        0.1089
     20 H          60.9608   84.3703    5.9357 H       1  UNL1        0.1189
     21 H          62.0645   83.9746    7.1189 H       1  UNL1        0.1189
     22 C          61.9092   86.1177   12.0203 C.3     1  UNL1        0.1391
     23 C          63.1537   84.0505   12.9837 C.ar    1  UNL1        0.0663
     24 C          64.0221   82.8449   12.7781 C.ar    1  UNL1        0.0100
     25 C          64.5145   82.5007   11.4037 C.ar    1  UNL1        0.0007
     26 C          64.1385   83.3623   10.2347 C.ar    1  UNL1       -0.0002
     27 C          63.2700   84.5679   10.4403 C.ar    1  UNL1       -0.0017
     28 C          62.7776   84.9120   11.8148 C.ar    1  UNL1        0.0102
     29 N          62.1688   84.7388   15.7326 N.1     1  UNL1       -0.1908
     30 C          62.6613   84.3947   14.3581 C.1     1  UNL1        0.1002
@<TRIPOS>BOND
     1    29    30    3
     2    30    23    1
     3    23    24   ar
     4    24    25   ar
     5    25    26   ar
     6    26    27   ar
     7    27    28   ar
     8    28    22    1
     9    22     1    1
    10     1     2   ar
    11     2    13    1
    12    13    14    1
    13    14    15    1
    14    15    16    1
    15    16    17    1
    16    17    18    1
    17    17    19    1
    18     2     3   ar
    19     3     4   ar
    20     4     5   ar
    21     5     6   ar
    22     6     7    1
    23     6     8   ar
    24     8     9   ar
    25     9    10   ar
    26    10    11   ar
    27    11    12    2
    28    28    23   ar
    29    11     1   ar
    30    19    13    1
    31    10     4   ar
    32    18    20    1
    33    18    21    1
@<TRIPOS>MOLECULE
*****
 30 33 0 0 0
SMALL
GASTEIGER

@<TRIPOS>ATOM
      1 N          63.7393   88.4166   13.0742 N.ar    1  UNL1       -0.2644
      2 C          63.7156   89.8808   12.7493 C.ar    1  UNL1        0.2037
      3 N          62.8719   90.3839   11.6157 N.ar    1  UNL1       -0.2148
      4 C          62.0519   89.4228   10.8069 C.ar    1  UNL1        0.0895
      5 C          61.2083   89.9259    9.6733 C.ar    1  UNL1        0.0307
      6 C          60.3884   88.9648    8.8647 C.ar    1  UNL1        0.0592
      7 CL         59.5447   89.4679    7.7310 Cl      1  UNL1       -0.0822
      8 C          60.4121   87.5006    9.1896 C.ar    1  UNL1        0.0116
      9 C          61.2557   86.9975   10.3232 C.ar    1  UNL1        0.0071
     10 C          62.0757   87.9586   11.1319 C.ar    1  UNL1        0.0740
     11 C          62.9194   87.4555   12.2655 C.ar    1  UNL1        0.2645
     12 O          62.9431   85.9913   12.5905 O.2     1  UNL1       -0.2668
     13 N          64.5355   90.8419   13.5580 N.pl3   1  UNL1       -0.2781
     14 C          65.7972   91.4173   12.9862 C.3     1  UNL1        0.0937
     15 C          66.6171   92.3783   13.7949 C.3     1  UNL1        0.0229
     16 C          66.1753   92.7640   15.1755 C.3     1  UNL1        0.0190
     17 C          64.9137   92.1886   15.7474 C.3     1  UNL1        0.0710
     18 N          64.4719   92.5743   17.1280 N.3     1  UNL1       -0.3208
     19 C          64.0938   91.2276   14.9387 C.3     1  UNL1        0.1089
     20 H          65.1423   93.2304   17.5286 H       1  UNL1        0.1189
     21 H          64.4203   91.7408   17.7137 H       1  UNL1        0.1189
     22 C          64.5830   87.9135   14.2079 C.3     1  UNL1        0.1391
     23 C          63.9045   85.9805   15.8056 C.ar    1  UNL1        0.0663
     24 C          63.2545   85.5103   17.0731 C.ar    1  UNL1        0.0100
     25 C          62.6330   86.5030   18.0102 C.ar    1  UNL1        0.0007
     26 C          62.6615   87.9659   17.6799 C.ar    1  UNL1       -0.0002
     27 C          63.3115   88.4361   16.4125 C.ar    1  UNL1       -0.0017
     28 C          63.9330   87.4434   15.4753 C.ar    1  UNL1        0.0102
     29 N          65.1475   83.9950   13.9314 N.1     1  UNL1       -0.1908
     30 C          64.5260   84.9878   14.8685 C.1     1  UNL1        0.1002
@<TRIPOS>BOND
     1    29    30    3
     2    30    23    1
     3    23    24   ar
     4    24    25   ar
     5    25    26   ar
     6    26    27   ar
     7    27    28   ar
     8    28    22    1
     9    22     1    1
    10     1     2   ar
    11     2    13    1
    12    13    14    1
    13    14    15    1
    14    15    16    1
    15    16    17    1
    16    17    18    1
    17    17    19    1
    18     2     3   ar
    19     3     4   ar
    20     4     5   ar
    21     5     6   ar
    22     6     7    1
    23     6     8   ar
    24     8     9   ar
    25     9    10   ar
    26    10    11   ar
    27    11    12    2
    28    28    23   ar
    29    11     1   ar
    30    19    13    1
    31    10     4   ar
    32    18    20    1
    33    18    21    1
@<TRIPOS>MOLECULE
*****
 30 33 0 0 0
SMALL
GASTEIGER

@<TRIPOS>ATOM
      1 N          64.5876   91.7143   11.8662 N.ar    1  UNL1       -0.2644
      2 C          64.9470   90.9299   13.0931 C.ar    1  UNL1        0.2037
      3 N          64.3978   89.5476   13.2871 N.ar    1  UNL1       -0.2148
      4 C          63.4891   88.9498   12.2542 C.ar    1  UNL1        0.0895
      5 C          62.9399   87.5675   12.4482 C.ar    1  UNL1        0.0307
      6 C          62.0312   86.9697   11.4153 C.ar    1  UNL1        0.0592
      7 CL         61.4820   85.5874   11.6093 Cl      1  UNL1       -0.0822
      8 C          61.6718   87.7542   10.1883 C.ar    1  UNL1        0.0116
      9 C          62.2210   89.1365    9.9943 C.ar    1  UNL1        0.0071
     10 C          63.1297   89.7342   11.0272 C.ar    1  UNL1        0.0740
     11 C          63.6789   91.1166   10.8333 C.ar    1  UNL1        0.2645
     12 O          63.3195   91.9011    9.6063 O.2     1  UNL1       -0.2668
     13 N          65.8557   91.5277   14.1261 N.pl3   1  UNL1       -0.2781
     14 C          65.2954   91.9999   15.4349 C.3     1  UNL1        0.0937
     15 C          66.2041   92.5977   16.4677 C.3     1  UNL1        0.0229
     16 C          67.6731   92.7233   16.1918 C.3     1  UNL1        0.0190
     17 C          68.2335   92.2511   14.8830 C.3     1  UNL1        0.0710
     18 N          69.7025   92.3768   14.6070 N.3     1  UNL1       -0.3208
     19 C          67.3248   91.6533   13.8501 C.3     1  UNL1        0.1089
     20 H          70.1644   92.8013   15.4113 H       1  UNL1        0.1189
     21 H          69.8450   92.9629   13.7845 H       1  UNL1        0.1189
     22 C          65.1369   93.0967   11.6722 C.3     1  UNL1        0.1391
     23 C          66.4790   94.6463   10.0762 C.ar    1  UNL1        0.0663
     24 C          67.6424   94.8687    9.1558 C.ar    1  UNL1        0.0100
     25 C          68.6270   93.7639    8.9111 C.ar    1  UNL1        0.0007
     26 C          68.4483   92.4366    9.5868 C.ar    1  UNL1       -0.0002
     27 C          67.2849   92.2142   10.5071 C.ar    1  UNL1       -0.0017
     28 C          66.3002   93.3191   10.7518 C.ar    1  UNL1        0.0102
     29 N          64.5097   96.8559   10.5657 N.1     1  UNL1       -0.1908
     30 C          65.4944   95.7511   10.3209 C.1     1  UNL1        0.1002
@<TRIPOS>BOND
     1    29    30    3
     2    30    23    1
     3    23    24   ar
     4    24    25   ar
     5    25    26   ar
     6    26    27   ar
     7    27    28   ar
     8    28    22    1
     9    22     1    1
    10     1     2   ar
    11     2    13    1
    12    13    14    1
    13    14    15    1
    14    15    16    1
    15    16    17    1
    16    17    18    1
    17    17    19    1
    18     2     3   ar
    19     3     4   ar
    20     4     5   ar
    21     5     6   ar
    22     6     7    1
    23     6     8   ar
    24     8     9   ar
    25     9    10   ar
    26    10    11   ar
    27    11    12    2
    28    28    23   ar
    29    11     1   ar
    30    19    13    1
    31    10     4   ar
    32    18    20    1
    33    18    21    1
@<TRIPOS>MOLECULE
*****
 30 33 0 0 0
SMALL
GASTEIGER

@<TRIPOS>ATOM
      1 N          62.1290   86.8839   11.5671 N.ar    1  UNL1       -0.2644
      2 C          62.8541   86.2551   12.7199 C.ar    1  UNL1        0.2037
      3 N          63.7225   87.0958   13.6082 N.ar    1  UNL1       -0.2148
      4 C          63.8659   88.5654   13.3437 C.ar    1  UNL1        0.0895
      5 C          64.7343   89.4060   14.2319 C.ar    1  UNL1        0.0307
      6 C          64.8777   90.8755   13.9674 C.ar    1  UNL1        0.0592
      7 CL         65.7462   91.7163   14.8557 Cl      1  UNL1       -0.0822
      8 C          64.1527   91.5043   12.8146 C.ar    1  UNL1        0.0116
      9 C          63.2843   90.6637   11.9264 C.ar    1  UNL1        0.0071
     10 C          63.1409   89.1942   12.1909 C.ar    1  UNL1        0.0740
     11 C          62.2724   88.3534   11.3026 C.ar    1  UNL1        0.2645
     12 O          61.5474   88.9822   10.1498 O.2     1  UNL1       -0.2668
     13 N          62.7106   84.7856   12.9844 N.pl3   1  UNL1       -0.2781
     14 C          62.2804   84.3058   14.3389 C.3     1  UNL1        0.0937
     15 C          62.1370   82.8363   14.6033 C.3     1  UNL1        0.0229
     16 C          62.4238   81.8466   13.5132 C.3     1  UNL1        0.0190
     17 C          62.8541   82.3264   12.1588 C.3     1  UNL1        0.0710
     18 N          63.1410   81.3366   11.0687 N.3     1  UNL1       -0.3208
     19 C          62.9975   83.7958   11.8943 C.3     1  UNL1        0.1089
     20 H          62.9936   80.3908   11.4209 H       1  UNL1        0.1189
     21 H          64.1087   81.4387   10.7629 H       1  UNL1        0.1189
     22 C          61.2606   86.0432   10.6788 C.3     1  UNL1        0.1391
     23 C          60.9503   85.8455    8.1069 C.ar    1  UNL1        0.0663
     24 C          61.4574   85.3985    6.7679 C.ar    1  UNL1        0.0100
     25 C          62.7816   84.7021    6.6616 C.ar    1  UNL1        0.0007
     26 C          63.5990   84.4527    7.8945 C.ar    1  UNL1       -0.0002
     27 C          63.0920   84.8998    9.2335 C.ar    1  UNL1       -0.0017
     28 C          61.7676   85.5962    9.3397 C.ar    1  UNL1        0.0102
     29 N          58.3017   87.2383    8.3194 N.1     1  UNL1       -0.1908
     30 C          59.6261   86.5419    8.2132 C.1     1  UNL1        0.1002
@<TRIPOS>BOND
     1    29    30    3
     2    30    23    1
     3    23    24   ar
     4    24    25   ar
     5    25    26   ar
     6    26    27   ar
     7    27    28   ar
     8    28    22    1
     9    22     1    1
    10     1     2   ar
    11     2    13    1
    12    13    14    1
    13    14    15    1
    14    15    16    1
    15    16    17    1
    16    17    18    1
    17    17    19    1
    18     2     3   ar
    19     3     4   ar
    20     4     5   ar
    21     5     6   ar
    22     6     7    1
    23     6     8   ar
    24     8     9   ar
    25     9    10   ar
    26    10    11   ar
    27    11    12    2
    28    28    23   ar
    29    11     1   ar
    30    19    13    1
    31    10     4   ar
    32    18    20    1
    33    18    21    1
@<TRIPOS>MOLECULE
*****
 30 33 0 0 0
SMALL
GASTEIGER

@<TRIPOS>ATOM
      1 N          63.8219   88.8487   12.9801 N.ar    1  UNL1       -0.2644
      2 C          63.9062   90.2165   12.3701 C.ar    1  UNL1        0.2037
      3 N          63.0735   90.5547   11.1692 N.ar    1  UNL1       -0.2148
      4 C          62.1566   89.5251   10.5782 C.ar    1  UNL1        0.0895
      5 C          61.3239   89.8634    9.3772 C.ar    1  UNL1        0.0307
      6 C          60.4070   88.8338    8.7863 C.ar    1  UNL1        0.0592
      7 CL         59.5743   89.1720    7.5853 Cl      1  UNL1       -0.0822
      8 C          60.3227   87.4661    9.3963 C.ar    1  UNL1        0.0116
      9 C          61.1553   87.1278   10.5973 C.ar    1  UNL1        0.0071
     10 C          62.0723   88.1574   11.1882 C.ar    1  UNL1        0.0740
     11 C          62.9050   87.8192   12.3892 C.ar    1  UNL1        0.2645
     12 O          62.8207   86.4514   12.9992 O.2     1  UNL1       -0.2668
     13 N          64.8232   91.2461   12.9611 N.pl3   1  UNL1       -0.2781
     14 C          65.4167   91.0293   14.3215 C.3     1  UNL1        0.0937
     15 C          66.3337   92.0588   14.9124 C.3     1  UNL1        0.0229
     16 C          66.6570   93.3052   14.1429 C.3     1  UNL1        0.0190
     17 C          66.0635   93.5220   12.7826 C.3     1  UNL1        0.0710
     18 N          66.3868   94.7683   12.0131 N.3     1  UNL1       -0.3208
     19 C          65.1465   92.4924   12.1916 C.3     1  UNL1        0.1089
     20 H          67.0193   95.3517   12.5610 H       1  UNL1        0.1189
     21 H          65.5272   95.2836   11.8237 H       1  UNL1        0.1189
     22 C          64.6546   88.5105   14.1811 C.3     1  UNL1        0.1391
     23 C          63.3828   88.3987   16.4438 C.ar    1  UNL1        0.0663
     24 C          62.7920   87.5943   17.5636 C.ar    1  UNL1        0.0100
     25 C          62.8823   86.0972   17.5404 C.ar    1  UNL1        0.0007
     26 C          63.5634   85.4045   16.3974 C.ar    1  UNL1       -0.0002
     27 C          64.1542   86.2089   15.2776 C.ar    1  UNL1       -0.0017
     28 C          64.0638   87.7061   15.3009 C.ar    1  UNL1        0.0102
     29 N          63.2022   91.3929   16.4902 N.1     1  UNL1       -0.1908
     30 C          63.2925   89.8958   16.4670 C.1     1  UNL1        0.1002
@<TRIPOS>BOND
     1    29    30    3
     2    30    23    1
     3    23    24   ar
     4    24    25   ar
     5    25    26   ar
     6    26    27   ar
     7    27    28   ar
     8    28    22    1
     9    22     1    1
    10     1     2   ar
    11     2    13    1
    12    13    14    1
    13    14    15    1
    14    15    16    1
    15    16    17    1
    16    17    18    1
    17    17    19    1
    18     2     3   ar
    19     3     4   ar
    20     4     5   ar
    21     5     6   ar
    22     6     7    1
    23     6     8   ar
    24     8     9   ar
    25     9    10   ar
    26    10    11   ar
    27    11    12    2
    28    28    23   ar
    29    11     1   ar
    30    19    13    1
    31    10     4   ar
    32    18    20    1
    33    18    21    1
@<TRIPOS>MOLECULE
*****
 30 33 0 0 0
SMALL
GASTEIGER

@<TRIPOS>ATOM
      1 N          62.2755   87.2402   11.7068 N.ar    1  UNL1       -0.2644
      2 C          61.9322   88.3419   10.7484 C.ar    1  UNL1        0.2037
      3 N          62.5178   89.7098   10.9374 N.ar    1  UNL1       -0.2148
      4 C          63.4467   89.9762   12.0847 C.ar    1  UNL1        0.0895
      5 C          64.0323   91.3441   12.2736 C.ar    1  UNL1        0.0307
      6 C          64.9611   91.6104   13.4209 C.ar    1  UNL1        0.0592
      7 CL         65.5467   92.9785   13.6099 Cl      1  UNL1       -0.0822
      8 C          65.3044   90.5088   14.3793 C.ar    1  UNL1        0.0116
      9 C          64.7188   89.1408   14.1903 C.ar    1  UNL1        0.0071
     10 C          63.7900   88.8745   13.0431 C.ar    1  UNL1        0.0740
     11 C          63.2043   87.5065   12.8541 C.ar    1  UNL1        0.2645
     12 O          63.5476   86.4048   13.8125 O.2     1  UNL1       -0.2668
     13 N          61.0033   88.0755    9.6011 N.pl3   1  UNL1       -0.2781
     14 C          60.4641   86.6937    9.3779 C.3     1  UNL1        0.0937
     15 C          59.5352   86.4275    8.2306 C.3     1  UNL1        0.0229
     16 C          59.1457   87.5429    7.3065 C.3     1  UNL1        0.0190
     17 C          59.6849   88.9247    7.5297 C.3     1  UNL1        0.0710
     18 N          59.2954   90.0402    6.6057 N.3     1  UNL1       -0.3208
     19 C          60.6138   89.1910    8.6770 C.3     1  UNL1        0.1089
     20 H          58.6636   89.6830    5.8889 H       1  UNL1        0.1189
     21 H          60.1309   90.4222    6.1626 H       1  UNL1        0.1189
     22 C          61.6899   85.8722   11.5178 C.3     1  UNL1        0.1391
     23 C          63.3182   84.1114   10.5189 C.ar    1  UNL1        0.0663
     24 C          64.1811   82.8962   10.6887 C.ar    1  UNL1        0.0100
     25 C          64.2784   82.2266   12.0274 C.ar    1  UNL1        0.0007
     26 C          63.5129   82.7723   13.1964 C.ar    1  UNL1       -0.0002
     27 C          62.6500   83.9874   13.0265 C.ar    1  UNL1       -0.0017
     28 C          62.5527   84.6570   11.6877 C.ar    1  UNL1        0.0102
     29 N          63.1236   85.4505    7.8414 N.1     1  UNL1       -0.1908
     30 C          63.2209   84.7809    9.1801 C.1     1  UNL1        0.1002
@<TRIPOS>BOND
     1    29    30    3
     2    30    23    1
     3    23    24   ar
     4    24    25   ar
     5    25    26   ar
     6    26    27   ar
     7    27    28   ar
     8    28    22    1
     9    22     1    1
    10     1     2   ar
    11     2    13    1
    12    13    14    1
    13    14    15    1
    14    15    16    1
    15    16    17    1
    16    17    18    1
    17    17    19    1
    18     2     3   ar
    19     3     4   ar
    20     4     5   ar
    21     5     6   ar
    22     6     7    1
    23     6     8   ar
    24     8     9   ar
    25     9    10   ar
    26    10    11   ar
    27    11    12    2
    28    28    23   ar
    29    11     1   ar
    30    19    13    1
    31    10     4   ar
    32    18    20    1
    33    18    21    1
@<TRIPOS>MOLECULE
*****
 30 33 0 0 0
SMALL
GASTEIGER

@<TRIPOS>ATOM
      1 N          62.5323   87.0728   11.6994 N.ar    1  UNL1       -0.2644
      2 C          62.6450   88.5660   11.6121 C.ar    1  UNL1        0.2037
      3 N          61.9025   89.3130   10.5441 N.ar    1  UNL1       -0.2148
      4 C          61.0472   88.5668    9.5634 C.ar    1  UNL1        0.0895
      5 C          60.3047   89.3137    8.4954 C.ar    1  UNL1        0.0307
      6 C          59.4496   88.5675    7.5147 C.ar    1  UNL1        0.0592
      7 CL         58.7070   89.3145    6.4466 Cl      1  UNL1       -0.0822
      8 C          59.3369   87.0743    7.6020 C.ar    1  UNL1        0.0116
      9 C          60.0794   86.3273    8.6700 C.ar    1  UNL1        0.0071
     10 C          60.9346   87.0735    9.6507 C.ar    1  UNL1        0.0740
     11 C          61.6771   86.3266   10.7188 C.ar    1  UNL1        0.2645
     12 O          61.5645   84.8334   10.8061 O.2     1  UNL1       -0.2668
     13 N          63.5002   89.3122   12.5929 N.pl3   1  UNL1       -0.2781
     14 C          63.9236   88.6533   13.8721 C.3     1  UNL1        0.0937
     15 C          64.7788   89.3995   14.8528 C.3     1  UNL1        0.0229
     16 C          65.2105   90.8047   14.5543 C.3     1  UNL1        0.0190
     17 C          64.7871   91.4636   13.2750 C.3     1  UNL1        0.0710
     18 N          65.2188   92.8688   12.9765 N.3     1  UNL1       -0.3208
     19 C          63.9319   90.7174   12.2944 C.3     1  UNL1        0.1089
     20 H          65.7899   93.2196   13.7454 H       1  UNL1        0.1189
     21 H          64.3958   93.4612   12.8665 H       1  UNL1        0.1189
     22 C          63.2749   86.3258   12.7675 C.3     1  UNL1        0.1391
     23 C          62.9851   83.9674   13.8182 C.ar    1  UNL1        0.0663
     24 C          63.1328   82.4775   13.7268 C.ar    1  UNL1        0.0100
     25 C          63.7179   81.8561   12.4934 C.ar    1  UNL1        0.0007
     26 C          64.1554   82.7246   11.3512 C.ar    1  UNL1       -0.0002
     27 C          64.0077   84.2145   11.4426 C.ar    1  UNL1       -0.0017
     28 C          63.4225   84.8359   12.6761 C.ar    1  UNL1        0.0102
     29 N          61.8149   85.2104   16.2851 N.1     1  UNL1       -0.1908
     30 C          62.4000   84.5889   15.0516 C.1     1  UNL1        0.1002
@<TRIPOS>BOND
     1    29    30    3
     2    30    23    1
     3    23    24   ar
     4    24    25   ar
     5    25    26   ar
     6    26    27   ar
     7    27    28   ar
     8    28    22    1
     9    22     1    1
    10     1     2   ar
    11     2    13    1
    12    13    14    1
    13    14    15    1
    14    15    16    1
    15    16    17    1
    16    17    18    1
    17    17    19    1
    18     2     3   ar
    19     3     4   ar
    20     4     5   ar
    21     5     6   ar
    22     6     7    1
    23     6     8   ar
    24     8     9   ar
    25     9    10   ar
    26    10    11   ar
    27    11    12    2
    28    28    23   ar
    29    11     1   ar
    30    19    13    1
    31    10     4   ar
    32    18    20    1
    33    18    21    1
@<TRIPOS>MOLECULE
*****
 30 33 0 0 0
SMALL
GASTEIGER

@<TRIPOS>ATOM
      1 N          63.2123   88.7639   12.3877 N.ar    1  UNL1       -0.2644
      2 C          63.8742   89.0294   13.7074 C.ar    1  UNL1        0.2037
      3 N          64.6574   90.2920   13.9131 N.ar    1  UNL1       -0.2148
      4 C          64.7788   91.2892   12.7991 C.ar    1  UNL1        0.0895
      5 C          65.5620   92.5518   13.0048 C.ar    1  UNL1        0.0307
      6 C          65.6834   93.5489   11.8908 C.ar    1  UNL1        0.0592
      7 CL         66.4666   94.8116   12.0965 Cl      1  UNL1       -0.0822
      8 C          65.0215   93.2835   10.5712 C.ar    1  UNL1        0.0116
      9 C          64.2383   92.0209   10.3655 C.ar    1  UNL1        0.0071
     10 C          64.1169   91.0237   11.4794 C.ar    1  UNL1        0.0740
     11 C          63.3337   89.7610   11.2738 C.ar    1  UNL1        0.2645
     12 O          62.6718   89.4956    9.9541 O.2     1  UNL1       -0.2668
     13 N          63.7528   88.0321   14.8214 N.pl3   1  UNL1       -0.2781
     14 C          63.1549   88.4433   16.1342 C.3     1  UNL1        0.0937
     15 C          63.0336   87.4461   17.2481 C.3     1  UNL1        0.0229
     16 C          63.5101   86.0377   17.0492 C.3     1  UNL1        0.0190
     17 C          64.1079   85.6266   15.7364 C.3     1  UNL1        0.0710
     18 N          64.5844   84.2183   15.5374 N.3     1  UNL1       -0.3208
     19 C          64.2293   86.6238   14.6225 C.3     1  UNL1        0.1089
     20 H          64.4262   83.6821   16.3906 H       1  UNL1        0.1189
     21 H          65.5808   84.2241   15.3194 H       1  UNL1        0.1189
     22 C          62.4291   87.5012   12.1821 C.3     1  UNL1        0.1391
     23 C          60.4092   87.7650   10.5695 C.ar    1  UNL1        0.0663
     24 C          59.7602   87.4924    9.2449 C.ar    1  UNL1        0.0100
     25 C          60.4820   86.6833    8.2084 C.ar    1  UNL1        0.0007
     26 C          61.8529   86.1469    8.4964 C.ar    1  UNL1       -0.0002
     27 C          62.5019   86.4195    9.8210 C.ar    1  UNL1       -0.0017
     28 C          61.7800   87.2286   10.8575 C.ar    1  UNL1        0.0102
     29 N          58.9656   89.3832   12.6426 N.1     1  UNL1       -0.1908
     30 C          59.6874   88.5741   11.6060 C.1     1  UNL1        0.1002
@<TRIPOS>BOND
     1    29    30    3
     2    30    23    1
     3    23    24   ar
     4    24    25   ar
     5    25    26   ar
     6    26    27   ar
     7    27    28   ar
     8    28    22    1
     9    22     1    1
    10     1     2   ar
    11     2    13    1
    12    13    14    1
    13    14    15    1
    14    15    16    1
    15    16    17    1
    16    17    18    1
    17    17    19    1
    18     2     3   ar
    19     3     4   ar
    20     4     5   ar
    21     5     6   ar
    22     6     7    1
    23     6     8   ar
    24     8     9   ar
    25     9    10   ar
    26    10    11   ar
    27    11    12    2
    28    28    23   ar
    29    11     1   ar
    30    19    13    1
    31    10     4   ar
    32    18    20    1
    33    18    21    1
@<TRIPOS>MOLECULE
*****
 30 33 0 0 0
SMALL
GASTEIGER

@<TRIPOS>ATOM
      1 N          63.8656   89.2748   12.9079 N.ar    1  UNL1       -0.2644
      2 C          64.3752   88.8678   14.2587 C.ar    1  UNL1        0.2037
      3 N          65.2870   89.7814   15.0228 N.ar    1  UNL1       -0.2148
      4 C          65.6892   91.1021   14.4361 C.ar    1  UNL1        0.0895
      5 C          66.6010   92.0158   15.2002 C.ar    1  UNL1        0.0307
      6 C          67.0031   93.3363   14.6135 C.ar    1  UNL1        0.0592
      7 CL         67.9150   94.2501   15.3776 Cl      1  UNL1       -0.0822
      8 C          66.4935   93.7433   13.2627 C.ar    1  UNL1        0.0116
      9 C          65.5817   92.8297   12.4986 C.ar    1  UNL1        0.0071
     10 C          65.1796   91.5091   13.0853 C.ar    1  UNL1        0.0740
     11 C          64.2678   90.5954   12.3212 C.ar    1  UNL1        0.2645
     12 O          63.7581   91.0023   10.9704 O.2     1  UNL1       -0.2668
     13 N          63.9730   87.5471   14.8454 N.pl3   1  UNL1       -0.2781
     14 C          64.2333   86.2793   14.0873 C.3     1  UNL1        0.0937
     15 C          63.8311   84.9587   14.6740 C.3     1  UNL1        0.0229
     16 C          63.1687   84.9060   16.0188 C.3     1  UNL1        0.0190
     17 C          62.9084   86.1739   16.7768 C.3     1  UNL1        0.0710
     18 N          62.2460   86.1212   18.1216 N.3     1  UNL1       -0.3208
     19 C          63.3106   87.4944   16.1901 C.3     1  UNL1        0.1089
     20 H          62.0433   85.1511   18.3630 H       1  UNL1        0.1189
     21 H          61.3763   86.6533   18.0933 H       1  UNL1        0.1189
     22 C          62.9538   88.3611   12.1438 C.3     1  UNL1        0.1391
     23 C          61.3969   88.3491   10.0639 C.ar    1  UNL1        0.0663
     24 C          60.2265   88.9129    9.3141 C.ar    1  UNL1        0.0100
     25 C          59.4425   90.0525    9.8943 C.ar    1  UNL1        0.0007
     26 C          59.8290   90.6284   11.2244 C.ar    1  UNL1       -0.0002
     27 C          60.9994   90.0645   11.9742 C.ar    1  UNL1       -0.0017
     28 C          61.7834   88.9249   11.3939 C.ar    1  UNL1        0.0102
     29 N          62.9648   86.0698    8.9034 N.1     1  UNL1       -0.1908
     30 C          62.1808   87.2094    9.4837 C.1     1  UNL1        0.1002
@<TRIPOS>BOND
     1    29    30    3
     2    30    23    1
     3    23    24   ar
     4    24    25   ar
     5    25    26   ar
     6    26    27   ar
     7    27    28   ar
     8    28    22    1
     9    22     1    1
    10     1     2   ar
    11     2    13    1
    12    13    14    1
    13    14    15    1
    14    15    16    1
    15    16    17    1
    16    17    18    1
    17    17    19    1
    18     2     3   ar
    19     3     4   ar
    20     4     5   ar
    21     5     6   ar
    22     6     7    1
    23     6     8   ar
    24     8     9   ar
    25     9    10   ar
    26    10    11   ar
    27    11    12    2
    28    28    23   ar
    29    11     1   ar
    30    19    13    1
    31    10     4   ar
    32    18    20    1
    33    18    21    1
