@<TRIPOS>MOLECULE
*****
 32 36 0 0 0
SMALL
GASTEIGER

@<TRIPOS>ATOM
      1 C          64.6178   90.8558   13.5932 C.ar    1  UNL1        0.0023
      2 C          64.0276   90.8509   12.2142 C.ar    1  UNL1        0.0162
      3 C          64.4032   91.9223   11.2338 C.ar    1  UNL1        0.0823
      4 N          65.3691   92.9984   11.6324 N.ar    1  UNL1       -0.2759
      5 C          65.9233   94.1762   10.8868 C.ar    1  UNL1        0.1471
      6 N          66.8560   94.9089   11.8050 N.ar    1  UNL1       -0.1330
      7 N          66.8782   94.1841   13.1180 N.ar    1  UNL1       -0.1288
      8 C          65.9593   93.0033   13.0114 C.ar    1  UNL1        0.1737
      9 C          65.5836   91.9321   13.9918 C.ar    1  UNL1        0.1049
     10 C          66.1738   91.9370   15.3708 C.3     1  UNL1        0.4212
     11 F          66.7641   91.9419   16.7498 F       1  UNL1       -0.1658
     12 F          64.9746   92.6794   15.8814 F       1  UNL1       -0.1658
     13 F          67.3730   91.1945   14.8601 F       1  UNL1       -0.1658
     14 C          64.2422   89.7845   14.5735 C.3     1  UNL1        0.0993
     15 N          63.5944   85.5633   13.1550 N.pl3   1  UNL1       -0.3029
     16 C          63.1317   86.7163   12.3145 C.3     1  UNL1        0.1082
     17 C          63.3476   88.1234   12.7873 C.3     1  UNL1        0.0941
     18 N          64.0262   88.3775   14.1007 N.3     1  UNL1       -0.2660
     19 C          64.4889   87.2244   14.9413 C.3     1  UNL1        0.0941
     20 C          64.2730   85.8174   14.4684 C.3     1  UNL1        0.1082
     21 F          62.7307   79.9352   11.2635 F       1  UNL1       -0.2041
     22 C          62.9466   81.3422   11.7363 C.ar    1  UNL1        0.1425
     23 C          63.7714   82.2904   10.9175 C.ar    1  UNL1        0.0311
     24 C          63.9873   83.6974   11.3904 C.ar    1  UNL1        0.0191
     25 C          63.3784   84.1562   12.6821 C.ar    1  UNL1        0.0759
     26 C          62.5536   83.2081   13.5010 C.ar    1  UNL1        0.1556
     27 F          61.9447   83.6669   14.7928 F       1  UNL1       -0.2028
     28 C          62.3377   81.8011   13.0281 C.ar    1  UNL1        0.0605
     29 C          65.6013   94.5546    9.4715 C.3     1  UNL1        0.0662
     30 C          66.3214   95.6968    8.8182 C.3     1  UNL1        0.0076
     31 C          66.3673   96.7824    7.7840 C.3     1  UNL1        0.0005
     32 C          67.5227   96.5897    8.7209 C.3     1  UNL1        0.0005
@<TRIPOS>BOND
     1    21    22    1
     2    22    23   ar
     3    23    24   ar
     4    24    25   ar
     5    25    15    1
     6    15    16    1
     7    16    17    1
     8    17    18    1
     9    18    14    1
    10    14     1    1
    11     1     2   ar
    12     2     3   ar
    13     3     4   ar
    14     4     5   ar
    15     5    29    1
    16    29    30    1
    17    30    31    1
    18    31    32    1
    19     5     6   ar
    20     6     7   ar
    21     7     8   ar
    22     8     9   ar
    23     9    10    1
    24    10    11    1
    25    10    12    1
    26    10    13    1
    27    18    19    1
    28    19    20    1
    29    25    26   ar
    30    26    27    1
    31    26    28   ar
    32    28    22   ar
    33    20    15    1
    34     9     1   ar
    35     8     4   ar
    36    32    30    1
@<TRIPOS>MOLECULE
*****
 32 36 0 0 0
SMALL
GASTEIGER

@<TRIPOS>ATOM
      1 C          63.2329   90.5518   12.0737 C.ar    1  UNL1        0.0023
      2 C          63.3317   91.0714   10.6700 C.ar    1  UNL1        0.0162
      3 C          64.4489   91.9975   10.2901 C.ar    1  UNL1        0.0823
      4 N          65.4671   92.4040   11.3137 N.ar    1  UNL1       -0.2759
      5 C          66.6702   93.2963   11.2334 C.ar    1  UNL1        0.1471
      6 N          67.3150   93.3281   12.5874 N.ar    1  UNL1       -0.1330
      7 N          66.5103   92.4555   13.5045 N.ar    1  UNL1       -0.1288
      8 C          65.3683   91.8843   12.7173 C.ar    1  UNL1        0.1737
      9 C          64.2512   90.9582   13.0973 C.ar    1  UNL1        0.1049
     10 C          64.1524   90.4386   14.5010 C.3     1  UNL1        0.4212
     11 F          64.0536   89.9189   15.9046 F       1  UNL1       -0.1658
     12 F          65.0579   89.2978   14.1424 F       1  UNL1       -0.1658
     13 F          63.2470   91.5794   14.8596 F       1  UNL1       -0.1658
     14 C          62.1158   89.6257   12.4537 C.3     1  UNL1        0.0993
     15 N          62.5897   85.1845   11.9045 N.pl3   1  UNL1       -0.3029
     16 C          61.6169   85.9459   11.0537 C.3     1  UNL1        0.1082
     17 C          61.4589   87.4262   11.2367 C.3     1  UNL1        0.0941
     18 N          62.2738   88.1453   12.2706 N.3     1  UNL1       -0.2660
     19 C          63.2466   87.3840   13.1215 C.3     1  UNL1        0.0941
     20 C          63.4046   85.9035   12.9384 C.3     1  UNL1        0.1082
     21 F          63.2215   79.2629   11.1723 F       1  UNL1       -0.2041
     22 C          63.0635   80.7434   11.3554 C.ar    1  UNL1        0.1425
     23 C          62.4602   81.2828   12.6183 C.ar    1  UNL1        0.0311
     24 C          62.3022   82.7631   12.8013 C.ar    1  UNL1        0.0191
     25 C          62.7477   83.7041   11.7214 C.ar    1  UNL1        0.0759
     26 C          63.3510   83.1647   10.4585 C.ar    1  UNL1        0.1556
     27 F          63.7964   84.1057    9.3786 F       1  UNL1       -0.2028
     28 C          63.5089   81.6844   10.2755 C.ar    1  UNL1        0.0605
     29 C          67.1452   94.0282   10.0133 C.3     1  UNL1        0.0662
     30 C          67.0191   95.5210    9.9377 C.3     1  UNL1        0.0076
     31 C          67.3066   96.8151    9.2358 C.3     1  UNL1        0.0005
     32 C          66.5132   96.8125   10.5087 C.3     1  UNL1        0.0005
@<TRIPOS>BOND
     1    21    22    1
     2    22    23   ar
     3    23    24   ar
     4    24    25   ar
     5    25    15    1
     6    15    16    1
     7    16    17    1
     8    17    18    1
     9    18    14    1
    10    14     1    1
    11     1     2   ar
    12     2     3   ar
    13     3     4   ar
    14     4     5   ar
    15     5    29    1
    16    29    30    1
    17    30    31    1
    18    31    32    1
    19     5     6   ar
    20     6     7   ar
    21     7     8   ar
    22     8     9   ar
    23     9    10    1
    24    10    11    1
    25    10    12    1
    26    10    13    1
    27    18    19    1
    28    19    20    1
    29    25    26   ar
    30    26    27    1
    31    26    28   ar
    32    28    22   ar
    33    20    15    1
    34     9     1   ar
    35     8     4   ar
    36    32    30    1
@<TRIPOS>MOLECULE
*****
 32 36 0 0 0
SMALL
GASTEIGER

@<TRIPOS>ATOM
      1 C          63.2692   90.6138   12.0497 C.ar    1  UNL1        0.0023
      2 C          63.4231   91.1485   10.6567 C.ar    1  UNL1        0.0162
      3 C          64.5677   92.0596   10.3253 C.ar    1  UNL1        0.0823
      4 N          65.5584   92.4359   11.3868 N.ar    1  UNL1       -0.2759
      5 C          66.7785   93.3081   11.3573 C.ar    1  UNL1        0.1471
      6 N          67.3787   93.3124   12.7320 N.ar    1  UNL1       -0.1330
      7 N          66.5295   92.4429   13.6111 N.ar    1  UNL1       -0.1288
      8 C          65.4046   91.9012   12.7798 C.ar    1  UNL1        0.1737
      9 C          64.2600   90.9901   13.1112 C.ar    1  UNL1        0.1049
     10 C          64.1061   90.4554   14.5042 C.3     1  UNL1        0.4212
     11 F          63.9523   89.9206   15.8972 F       1  UNL1       -0.1658
     12 F          63.1766   91.5852   14.8352 F       1  UNL1       -0.1658
     13 F          65.0356   89.3256   14.1731 F       1  UNL1       -0.1658
     14 C          62.1247   89.7027   12.3811 C.3     1  UNL1        0.0993
     15 N          62.5871   85.2502   11.9212 N.pl3   1  UNL1       -0.3029
     16 C          63.4700   86.0016   12.8730 C.3     1  UNL1        0.1082
     17 C          63.3159   87.4858   13.0263 C.3     1  UNL1        0.0941
     18 N          62.2788   88.2186   12.2278 N.3     1  UNL1       -0.2660
     19 C          61.3959   87.4672   11.2760 C.3     1  UNL1        0.0941
     20 C          61.5501   85.9830   11.1227 C.3     1  UNL1        0.1082
     21 F          63.2038   79.3136   11.3079 F       1  UNL1       -0.2041
     22 C          63.0497   80.7978   11.4612 C.ar    1  UNL1        0.1425
     23 C          63.4067   81.7102   10.3254 C.ar    1  UNL1        0.0311
     24 C          63.2525   83.1943   10.4788 C.ar    1  UNL1        0.0191
     25 C          62.7413   83.7660   11.7679 C.ar    1  UNL1        0.0759
     26 C          62.3843   82.8536   12.9036 C.ar    1  UNL1        0.1556
     27 F          61.8731   83.4254   14.1928 F       1  UNL1       -0.2028
     28 C          62.5385   81.3695   12.7503 C.ar    1  UNL1        0.0605
     29 C          67.3058   94.0464   10.1627 C.3     1  UNL1        0.0662
     30 C          66.9746   95.4967    9.9711 C.3     1  UNL1        0.0076
     31 C          67.2235   96.8063    9.2831 C.3     1  UNL1        0.0005
     32 C          66.1519   96.6994   10.3272 C.3     1  UNL1        0.0005
@<TRIPOS>BOND
     1    21    22    1
     2    22    23   ar
     3    23    24   ar
     4    24    25   ar
     5    25    15    1
     6    15    16    1
     7    16    17    1
     8    17    18    1
     9    18    14    1
    10    14     1    1
    11     1     2   ar
    12     2     3   ar
    13     3     4   ar
    14     4     5   ar
    15     5    29    1
    16    29    30    1
    17    30    31    1
    18    31    32    1
    19     5     6   ar
    20     6     7   ar
    21     7     8   ar
    22     8     9   ar
    23     9    10    1
    24    10    11    1
    25    10    12    1
    26    10    13    1
    27    18    19    1
    28    19    20    1
    29    25    26   ar
    30    26    27    1
    31    26    28   ar
    32    28    22   ar
    33    20    15    1
    34     9     1   ar
    35     8     4   ar
    36    32    30    1
@<TRIPOS>MOLECULE
*****
 32 36 0 0 0
SMALL
GASTEIGER

@<TRIPOS>ATOM
      1 C          63.3724   88.6045   13.4329 C.ar    1  UNL1        0.0023
      2 C          64.1465   87.6634   14.3076 C.ar    1  UNL1        0.0162
      3 C          64.1717   86.1968   13.9934 C.ar    1  UNL1        0.0823
      4 N          63.4228   85.6715   12.8046 N.ar    1  UNL1       -0.2759
      5 C          63.2647   84.2869   12.2496 C.ar    1  UNL1        0.1471
      6 N          62.3929   84.3723   11.0320 N.ar    1  UNL1       -0.1330
      7 N          62.0123   85.8097   10.8344 N.ar    1  UNL1       -0.1288
      8 C          62.6488   86.6126   11.9299 C.ar    1  UNL1        0.1737
      9 C          62.6236   88.0791   12.2441 C.ar    1  UNL1        0.1049
     10 C          61.8496   89.0203   11.3694 C.3     1  UNL1        0.4212
     11 F          61.0755   89.9615   10.4947 F       1  UNL1       -0.1658
     12 F          60.9682   89.3744   12.5303 F       1  UNL1       -0.1658
     13 F          62.7309   88.6662   10.2084 F       1  UNL1       -0.1658
     14 C          63.3472   90.0710   13.7470 C.3     1  UNL1        0.0993
     15 N          65.5265   92.9784   11.0922 N.pl3   1  UNL1       -0.3029
     16 C          65.9451   92.8100   12.5227 C.3     1  UNL1        0.1082
     17 C          65.2187   91.8409   13.4076 C.3     1  UNL1        0.0941
     18 N          64.0736   91.0401   12.8621 N.3     1  UNL1       -0.2660
     19 C          63.6550   91.2085   11.4316 C.3     1  UNL1        0.0941
     20 C          64.3814   92.1777   10.5466 C.3     1  UNL1        0.1082
     21 F          68.4321   96.8550    7.5525 F       1  UNL1       -0.2041
     22 C          67.7057   95.8859    8.4375 C.ar    1  UNL1        0.1425
     23 C          66.5810   96.3628    9.3078 C.ar    1  UNL1        0.0311
     24 C          65.8546   95.3936   10.1927 C.ar    1  UNL1        0.0191
     25 C          66.2529   93.9476   10.2072 C.ar    1  UNL1        0.0759
     26 C          67.3776   93.4706    9.3369 C.ar    1  UNL1        0.1556
     27 F          67.7759   92.0246    9.3514 F       1  UNL1       -0.2028
     28 C          68.1040   94.4398    8.4520 C.ar    1  UNL1        0.0605
     29 C          63.8717   83.0364   12.8134 C.3     1  UNL1        0.0662
     30 C          62.9967   81.8690   13.1616 C.3     1  UNL1        0.0076
     31 C          61.7167   81.3276   13.7261 C.3     1  UNL1        0.0005
     32 C          62.7611   80.3881   13.2003 C.3     1  UNL1        0.0005
@<TRIPOS>BOND
     1    21    22    1
     2    22    23   ar
     3    23    24   ar
     4    24    25   ar
     5    25    15    1
     6    15    16    1
     7    16    17    1
     8    17    18    1
     9    18    14    1
    10    14     1    1
    11     1     2   ar
    12     2     3   ar
    13     3     4   ar
    14     4     5   ar
    15     5    29    1
    16    29    30    1
    17    30    31    1
    18    31    32    1
    19     5     6   ar
    20     6     7   ar
    21     7     8   ar
    22     8     9   ar
    23     9    10    1
    24    10    11    1
    25    10    12    1
    26    10    13    1
    27    18    19    1
    28    19    20    1
    29    25    26   ar
    30    26    27    1
    31    26    28   ar
    32    28    22   ar
    33    20    15    1
    34     9     1   ar
    35     8     4   ar
    36    32    30    1
@<TRIPOS>MOLECULE
*****
 32 36 0 0 0
SMALL
GASTEIGER

@<TRIPOS>ATOM
      1 C          63.5233   89.7841   12.4599 C.ar    1  UNL1        0.0023
      2 C          63.9649   89.3545   13.8276 C.ar    1  UNL1        0.0162
      3 C          64.8412   90.2529   14.6493 C.ar    1  UNL1        0.0823
      4 N          65.2758   91.5807   14.1034 N.ar    1  UNL1       -0.2759
      5 C          66.1320   92.6703   14.6775 C.ar    1  UNL1        0.1471
      6 N          66.2196   93.7732   13.6647 N.ar    1  UNL1       -0.1330
      7 N          65.4175   93.3652   12.4646 N.ar    1  UNL1       -0.1288
      8 C          64.8342   92.0102   12.7357 C.ar    1  UNL1        0.1737
      9 C          63.9580   91.1119   11.9140 C.ar    1  UNL1        0.1049
     10 C          63.5164   91.5414   10.5463 C.3     1  UNL1        0.4212
     11 F          63.0748   91.9709    9.1787 F       1  UNL1       -0.1658
     12 F          62.0834   91.3689   10.9548 F       1  UNL1       -0.1658
     13 F          64.9493   91.7139   10.1378 F       1  UNL1       -0.1658
     14 C          62.6471   88.8858   11.6381 C.3     1  UNL1        0.0993
     15 N          62.6024   84.4549   12.4225 N.pl3   1  UNL1       -0.3029
     16 C          63.4204   85.3624   13.2927 C.3     1  UNL1        0.1082
     17 C          63.4353   86.8393   13.0313 C.3     1  UNL1        0.0941
     18 N          62.6322   87.4089   11.8996 N.3     1  UNL1       -0.2660
     19 C          61.8142   86.5014   11.0293 C.3     1  UNL1        0.0941
     20 C          61.7993   85.0243   11.2908 C.3     1  UNL1        0.1082
     21 F          62.5429   78.5470   13.4684 F       1  UNL1       -0.2041
     22 C          62.5578   80.0241   13.2069 C.ar    1  UNL1        0.1425
     23 C          62.0871   80.9777   14.2647 C.ar    1  UNL1        0.0311
     24 C          62.1020   82.4547   14.0032 C.ar    1  UNL1        0.0191
     25 C          62.5875   82.9779   12.6839 C.ar    1  UNL1        0.0759
     26 C          63.0583   82.0242   11.6262 C.ar    1  UNL1        0.1556
     27 F          63.5438   82.5475   10.3069 F       1  UNL1       -0.2028
     28 C          63.0434   80.5473   11.8877 C.ar    1  UNL1        0.0605
     29 C          66.7859   92.6589   16.0274 C.3     1  UNL1        0.0662
     30 C          68.2385   93.0084   16.1602 C.3     1  UNL1        0.0076
     31 C          69.6571   92.5917   16.4133 C.3     1  UNL1        0.0005
     32 C          69.3361   94.0306   16.1369 C.3     1  UNL1        0.0005
@<TRIPOS>BOND
     1    21    22    1
     2    22    23   ar
     3    23    24   ar
     4    24    25   ar
     5    25    15    1
     6    15    16    1
     7    16    17    1
     8    17    18    1
     9    18    14    1
    10    14     1    1
    11     1     2   ar
    12     2     3   ar
    13     3     4   ar
    14     4     5   ar
    15     5    29    1
    16    29    30    1
    17    30    31    1
    18    31    32    1
    19     5     6   ar
    20     6     7   ar
    21     7     8   ar
    22     8     9   ar
    23     9    10    1
    24    10    11    1
    25    10    12    1
    26    10    13    1
    27    18    19    1
    28    19    20    1
    29    25    26   ar
    30    26    27    1
    31    26    28   ar
    32    28    22   ar
    33    20    15    1
    34     9     1   ar
    35     8     4   ar
    36    32    30    1
@<TRIPOS>MOLECULE
*****
 32 36 0 0 0
SMALL
GASTEIGER

@<TRIPOS>ATOM
      1 C          61.5376   87.8568   11.0914 C.ar    1  UNL1        0.0023
      2 C          60.8546   89.1839   10.9420 C.ar    1  UNL1        0.0162
      3 C          60.0887   89.4966    9.6906 C.ar    1  UNL1        0.0823
      4 N          60.0058   88.4822    8.5888 N.ar    1  UNL1       -0.2759
      5 C          59.3287   88.5070    7.2505 C.ar    1  UNL1        0.1471
      6 N          59.5932   87.1952    6.5728 N.ar    1  UNL1       -0.1330
      7 N          60.4338   86.3597    7.4923 N.ar    1  UNL1       -0.1288
      8 C          60.6888   87.1551    8.7382 C.ar    1  UNL1        0.1737
      9 C          61.4547   86.8424    9.9895 C.ar    1  UNL1        0.1049
     10 C          62.1376   85.5153   10.1389 C.3     1  UNL1        0.4212
     11 F          62.8206   84.1882   10.2883 F       1  UNL1       -0.1658
     12 F          61.2018   85.1594   11.2558 F       1  UNL1       -0.1658
     13 F          63.0735   85.8712    9.0220 F       1  UNL1       -0.1658
     14 C          62.3034   87.5442   12.3426 C.3     1  UNL1        0.0993
     15 N          65.2477   90.5259   13.9828 N.pl3   1  UNL1       -0.3029
     16 C          65.0662   89.2002   14.6608 C.3     1  UNL1        0.1082
     17 C          64.0848   88.2063   14.1141 C.3     1  UNL1        0.0941
     18 N          63.2848   88.5381   12.8893 N.3     1  UNL1       -0.2660
     19 C          63.4663   89.8637   12.2113 C.3     1  UNL1        0.0941
     20 C          64.4478   90.8576   12.7581 C.3     1  UNL1        0.1082
     21 F          69.1735   94.5015   16.1698 F       1  UNL1       -0.2041
     22 C          68.1921   93.5075   15.6230 C.ar    1  UNL1        0.1425
     23 C          68.5111   92.7513   14.3676 C.ar    1  UNL1        0.0311
     24 C          67.5296   91.7574   13.8208 C.ar    1  UNL1        0.0191
     25 C          66.2292   91.5198   14.5296 C.ar    1  UNL1        0.0759
     26 C          65.9102   92.2761   15.7851 C.ar    1  UNL1        0.1556
     27 F          64.6097   92.0385   16.4938 F       1  UNL1       -0.2028
     28 C          66.8916   93.2699   16.3318 C.ar    1  UNL1        0.0605
     29 C          58.5277   89.6439    6.6886 C.3     1  UNL1        0.0662
     30 C          59.1525   90.5865    5.7032 C.3     1  UNL1        0.0076
     31 C          59.0345   91.7503    4.7640 C.3     1  UNL1        0.0005
     32 C          60.3528   91.0555    4.9354 C.3     1  UNL1        0.0005
@<TRIPOS>BOND
     1    21    22    1
     2    22    23   ar
     3    23    24   ar
     4    24    25   ar
     5    25    15    1
     6    15    16    1
     7    16    17    1
     8    17    18    1
     9    18    14    1
    10    14     1    1
    11     1     2   ar
    12     2     3   ar
    13     3     4   ar
    14     4     5   ar
    15     5    29    1
    16    29    30    1
    17    30    31    1
    18    31    32    1
    19     5     6   ar
    20     6     7   ar
    21     7     8   ar
    22     8     9   ar
    23     9    10    1
    24    10    11    1
    25    10    12    1
    26    10    13    1
    27    18    19    1
    28    19    20    1
    29    25    26   ar
    30    26    27    1
    31    26    28   ar
    32    28    22   ar
    33    20    15    1
    34     9     1   ar
    35     8     4   ar
    36    32    30    1
@<TRIPOS>MOLECULE
*****
 32 36 0 0 0
SMALL
GASTEIGER

@<TRIPOS>ATOM
      1 C          64.6513   90.1880   14.2241 C.ar    1  UNL1        0.0023
      2 C          65.9941   90.8194   14.4438 C.ar    1  UNL1        0.0162
      3 C          66.5452   91.7809   13.4329 C.ar    1  UNL1        0.0823
      4 N          65.7535   92.1110   12.2023 N.ar    1  UNL1       -0.2759
      5 C          66.0363   93.0153   11.0395 C.ar    1  UNL1        0.1471
      6 N          64.8683   92.9428   10.1011 N.ar    1  UNL1       -0.1330
      7 N          63.8637   91.9937   10.6840 N.ar    1  UNL1       -0.1288
      8 C          64.4107   91.4796   11.9827 C.ar    1  UNL1        0.1737
      9 C          63.8596   90.5181   12.9935 C.ar    1  UNL1        0.1049
     10 C          62.5168   89.8867   12.7738 C.3     1  UNL1        0.4212
     11 F          61.1740   89.2553   12.5541 F       1  UNL1       -0.1658
     12 F          62.0905   90.3158   14.1464 F       1  UNL1       -0.1658
     13 F          62.9431   89.4577   11.4011 F       1  UNL1       -0.1658
     14 C          64.1002   89.2265   15.2349 C.3     1  UNL1        0.0993
     15 N          63.3947   84.9292   14.1014 N.pl3   1  UNL1       -0.3029
     16 C          63.5165   85.3134   15.5462 C.3     1  UNL1        0.1082
     17 C          63.7517   86.7458   15.9240 C.3     1  UNL1        0.0941
     18 N          63.8651   87.7941   14.8570 N.3     1  UNL1       -0.2660
     19 C          63.7433   87.4098   13.4122 C.3     1  UNL1        0.0941
     20 C          63.5081   85.9773   13.0344 C.3     1  UNL1        0.1082
     21 F          62.4540   79.1992   12.5902 F       1  UNL1       -0.2041
     22 C          62.6892   80.6318   12.9680 C.ar    1  UNL1        0.1425
     23 C          61.9633   81.2278   14.1375 C.ar    1  UNL1        0.0311
     24 C          62.1984   82.6603   14.5152 C.ar    1  UNL1        0.0191
     25 C          63.1596   83.4966   13.7236 C.ar    1  UNL1        0.0759
     26 C          63.8855   82.9005   12.5541 C.ar    1  UNL1        0.1556
     27 F          64.8466   83.7369   11.7624 F       1  UNL1       -0.2028
     28 C          63.6503   81.4681   12.1764 C.ar    1  UNL1        0.0605
     29 C          67.2704   93.8462   10.8486 C.3     1  UNL1        0.0662
     30 C          67.3151   94.8855    9.7679 C.3     1  UNL1        0.0076
     31 C          67.3917   95.2450    8.3136 C.3     1  UNL1        0.0005
     32 C          67.3158   96.3263    9.3504 C.3     1  UNL1        0.0005
@<TRIPOS>BOND
     1    21    22    1
     2    22    23   ar
     3    23    24   ar
     4    24    25   ar
     5    25    15    1
     6    15    16    1
     7    16    17    1
     8    17    18    1
     9    18    14    1
    10    14     1    1
    11     1     2   ar
    12     2     3   ar
    13     3     4   ar
    14     4     5   ar
    15     5    29    1
    16    29    30    1
    17    30    31    1
    18    31    32    1
    19     5     6   ar
    20     6     7   ar
    21     7     8   ar
    22     8     9   ar
    23     9    10    1
    24    10    11    1
    25    10    12    1
    26    10    13    1
    27    18    19    1
    28    19    20    1
    29    25    26   ar
    30    26    27    1
    31    26    28   ar
    32    28    22   ar
    33    20    15    1
    34     9     1   ar
    35     8     4   ar
    36    32    30    1
@<TRIPOS>MOLECULE
*****
 32 36 0 0 0
SMALL
GASTEIGER

@<TRIPOS>ATOM
      1 C          59.9908   89.0691    8.2887 C.ar    1  UNL1        0.0023
      2 C          60.3663   90.3032    9.0540 C.ar    1  UNL1        0.0162
      3 C          61.2198   90.1931   10.2827 C.ar    1  UNL1        0.0823
      4 N          61.6976   88.8488   10.7460 N.ar    1  UNL1       -0.2759
      5 C          62.5446   88.4316   11.9115 C.ar    1  UNL1        0.1471
      6 N          62.6925   86.9396   11.8665 N.ar    1  UNL1       -0.1330
      7 N          61.9369   86.4347   10.6731 N.ar    1  UNL1       -0.1288
      8 C          61.3220   87.6147    9.9806 C.ar    1  UNL1        0.1737
      9 C          60.4686   87.7248    8.7520 C.ar    1  UNL1        0.1049
     10 C          60.0930   86.4906    7.9866 C.3     1  UNL1        0.4212
     11 F          59.7175   85.2565    7.2212 F       1  UNL1       -0.1658
     12 F          58.6688   86.6493    8.4297 F       1  UNL1       -0.1658
     13 F          61.5173   86.3320    7.5435 F       1  UNL1       -0.1658
     14 C          59.1374   89.1792    7.0600 C.3     1  UNL1        0.0993
     15 N          60.2234   92.1086    3.8214 N.pl3   1  UNL1       -0.3029
     16 C          61.2819   91.2379    4.4309 C.3     1  UNL1        0.1082
     17 C          60.9199   90.2614    5.5104 C.3     1  UNL1        0.0941
     18 N          59.4994   90.1556    5.9805 N.3     1  UNL1       -0.2660
     19 C          58.4409   91.0264    5.3711 C.3     1  UNL1        0.0941
     20 C          58.8029   92.0029    4.2915 C.3     1  UNL1        0.1082
     21 F          61.6715   96.0147   -0.4967 F       1  UNL1       -0.2041
     22 C          61.3095   95.0381    0.5829 C.ar    1  UNL1        0.1425
     23 C          60.2783   95.4030    1.6092 C.ar    1  UNL1        0.0311
     24 C          59.9163   94.4265    2.6887 C.ar    1  UNL1        0.0191
     25 C          60.5855   93.0852    2.7418 C.ar    1  UNL1        0.0759
     26 C          61.6167   92.7203    1.7155 C.ar    1  UNL1        0.1556
     27 F          62.2859   91.3789    1.7687 F       1  UNL1       -0.2028
     28 C          61.9787   93.6968    0.6360 C.ar    1  UNL1        0.0605
     29 C          63.1393   89.3459   12.9413 C.3     1  UNL1        0.0662
     30 C          63.8782   90.5788   12.5124 C.3     1  UNL1        0.0076
     31 C          64.8265   91.6989   12.8225 C.3     1  UNL1        0.0005
     32 C          64.2096   91.5943   11.4593 C.3     1  UNL1        0.0005
@<TRIPOS>BOND
     1    21    22    1
     2    22    23   ar
     3    23    24   ar
     4    24    25   ar
     5    25    15    1
     6    15    16    1
     7    16    17    1
     8    17    18    1
     9    18    14    1
    10    14     1    1
    11     1     2   ar
    12     2     3   ar
    13     3     4   ar
    14     4     5   ar
    15     5    29    1
    16    29    30    1
    17    30    31    1
    18    31    32    1
    19     5     6   ar
    20     6     7   ar
    21     7     8   ar
    22     8     9   ar
    23     9    10    1
    24    10    11    1
    25    10    12    1
    26    10    13    1
    27    18    19    1
    28    19    20    1
    29    25    26   ar
    30    26    27    1
    31    26    28   ar
    32    28    22   ar
    33    20    15    1
    34     9     1   ar
    35     8     4   ar
    36    32    30    1
@<TRIPOS>MOLECULE
*****
 32 36 0 0 0
SMALL
GASTEIGER

@<TRIPOS>ATOM
      1 C          62.4451   87.4073   11.8019 C.ar    1  UNL1        0.0023
      2 C          63.0002   86.2837   12.6262 C.ar    1  UNL1        0.0162
      3 C          63.2686   84.9506   11.9930 C.ar    1  UNL1        0.0823
      4 N          62.9817   84.7410   10.5357 N.ar    1  UNL1       -0.2759
      5 C          63.1431   83.5468    9.6426 C.ar    1  UNL1        0.1471
      6 N          62.6877   83.9322    8.2663 N.ar    1  UNL1       -0.1330
      7 N          62.2449   85.3647    8.3089 N.ar    1  UNL1       -0.1288
      8 C          62.4266   85.8646    9.7115 C.ar    1  UNL1        0.1737
      9 C          62.1582   87.1977   10.3445 C.ar    1  UNL1        0.1049
     10 C          61.6031   88.3213    9.5203 C.3     1  UNL1        0.4212
     11 F          61.0479   89.4449    8.6961 F       1  UNL1       -0.1658
     12 F          60.2534   87.6671    9.5376 F       1  UNL1       -0.1658
     13 F          62.9528   88.9755    9.5030 F       1  UNL1       -0.1658
     14 C          62.1767   88.7404   12.4350 C.3     1  UNL1        0.0993
     15 N          65.5805   91.1631   14.1068 N.pl3   1  UNL1       -0.3029
     16 C          65.1421   89.9073   14.8003 C.3     1  UNL1        0.1082
     17 C          64.0075   89.0998   14.2431 C.3     1  UNL1        0.0941
     18 N          63.3113   89.5479   12.9922 N.3     1  UNL1       -0.2660
     19 C          63.7497   90.8037   12.2988 C.3     1  UNL1        0.0941
     20 C          64.8843   91.6113   12.8561 C.3     1  UNL1        0.1082
     21 F          70.1189   94.3932   16.3360 F       1  UNL1       -0.2041
     22 C          68.9843   93.5857   15.7787 C.ar    1  UNL1        0.1425
     23 C          69.1637   92.8233   14.4994 C.ar    1  UNL1        0.0311
     24 C          68.0291   92.0158   13.9422 C.ar    1  UNL1        0.0191
     25 C          66.7151   91.9706   14.6642 C.ar    1  UNL1        0.0759
     26 C          66.5357   92.7330   15.9435 C.ar    1  UNL1        0.1556
     27 F          65.2216   92.6878   16.6655 F       1  UNL1       -0.2028
     28 C          67.6702   93.5405   16.5007 C.ar    1  UNL1        0.0605
     29 C          63.6678   82.2030   10.0535 C.3     1  UNL1        0.0662
     30 C          63.1157   81.5225   11.2709 C.3     1  UNL1        0.0076
     31 C          62.8037   80.2653   12.0274 C.3     1  UNL1        0.0005
     32 C          62.4713   81.6012   12.6232 C.3     1  UNL1        0.0005
@<TRIPOS>BOND
     1    21    22    1
     2    22    23   ar
     3    23    24   ar
     4    24    25   ar
     5    25    15    1
     6    15    16    1
     7    16    17    1
     8    17    18    1
     9    18    14    1
    10    14     1    1
    11     1     2   ar
    12     2     3   ar
    13     3     4   ar
    14     4     5   ar
    15     5    29    1
    16    29    30    1
    17    30    31    1
    18    31    32    1
    19     5     6   ar
    20     6     7   ar
    21     7     8   ar
    22     8     9   ar
    23     9    10    1
    24    10    11    1
    25    10    12    1
    26    10    13    1
    27    18    19    1
    28    19    20    1
    29    25    26   ar
    30    26    27    1
    31    26    28   ar
    32    28    22   ar
    33    20    15    1
    34     9     1   ar
    35     8     4   ar
    36    32    30    1
