@<TRIPOS>MOLECULE
*****
 29 34 0 0 0
SMALL
GASTEIGER

@<TRIPOS>ATOM
      1 N          64.0745   90.1557   13.5289 N.ar    1  UNL1       -0.2937
      2 C          63.3429   90.1776   12.2196 C.ar    1  UNL1        0.1798
      3 N          63.8166   91.3710   11.4441 N.ar    1  UNL1       -0.2195
      4 C          64.8408   92.0866   12.2741 C.ar    1  UNL1        0.1483
      5 C          65.6489   93.3251   12.0230 C.ar    1  UNL1        0.1518
      6 N          66.6164   93.8125   13.0606 N.ar    1  UNL1       -0.2003
      7 C          66.7758   93.0614   14.3491 C.ar    1  UNL1        0.2264
      8 CL         67.7432   93.5488   15.3866 Cl      1  UNL1       -0.0409
      9 N          65.9676   91.8228   14.6001 N.ar    1  UNL1       -0.1976
     10 C          65.0002   91.3355   13.5626 C.ar    1  UNL1        0.1680
     11 O          63.0285   90.7337   16.5656 O.3     1  UNL1       -0.3801
     12 C          63.4285   89.3991   16.0099 C.3     1  UNL1        0.1577
     13 C          63.4179   88.0957   16.7525 C.3     1  UNL1        0.1390
     14 O          63.0055   87.8983   18.1810 O.3     1  UNL1       -0.3819
     15 C          63.8922   87.0246   15.8156 C.3     1  UNL1        0.0314
     16 C          64.3904   86.1895   14.6735 C.3     1  UNL1        0.0046
     17 C          64.1959   87.6659   14.4940 C.3     1  UNL1        0.0258
     18 C          63.9093   89.1334   14.6141 C.3     1  UNL1        0.1175
     19 H          62.7571   90.6304   17.4911 H       1  UNL1        0.2105
     20 H          62.7419   88.7504   18.5622 H       1  UNL1        0.2104
     21 N          65.4895   94.0763   10.7345 N.pl3   1  UNL1       -0.3184
     22 H          64.6183   94.4692   10.4983 H       1  UNL1        0.1482
     23 C          66.6576   94.2287    9.8058 C.3     1  UNL1        0.0703
     24 C          66.8474   95.5061    9.0427 C.3     1  UNL1        0.0179
     25 C          66.5329   96.3704    7.8578 C.3     1  UNL1        0.0017
     26 C          67.4905   96.8543    8.9061 C.3     1  UNL1        0.0017
     27 C          67.6358   93.1037    9.6402 C.3     1  UNL1        0.0179
     28 C          68.2750   91.8508   10.1612 C.3     1  UNL1        0.0017
     29 C          68.6910   92.4082    8.8323 C.3     1  UNL1        0.0017
@<TRIPOS>BOND
     1    12    11    1
     2    12    13    1
     3    13    14    1
     4    13    15    1
     5    15    16    1
     6    17    16    1
     7    17    18    1
     8    18     1    1
     9     1     2   ar
    10     2     3   ar
    11     3     4   ar
    12     4     5   ar
    13     5    21    1
    14    21    23    1
    15    23    24    1
    16    24    25    1
    17    25    26    1
    18    23    27    1
    19    27    28    1
    20    28    29    1
    21     5     6   ar
    22     6     7   ar
    23     7     8    1
    24     7     9   ar
    25     9    10   ar
    26    18    12    1
    27    10     1   ar
    28    17    15    1
    29    10     4   ar
    30    26    24    1
    31    29    27    1
    32    11    19    1
    33    14    20    1
    34    21    22    1
@<TRIPOS>MOLECULE
*****
 29 34 0 0 0
SMALL
GASTEIGER

@<TRIPOS>ATOM
      1 N          64.0607   90.0006   13.7232 N.ar    1  UNL1       -0.2937
      2 C          63.2423   90.1446   12.4744 C.ar    1  UNL1        0.1798
      3 N          63.7400   91.3481   11.7303 N.ar    1  UNL1       -0.2195
      4 C          64.8661   91.9479   12.5191 C.ar    1  UNL1        0.1483
      5 C          65.7366   93.1448   12.2750 C.ar    1  UNL1        0.1518
      6 N          66.8054   93.5089   13.2626 N.ar    1  UNL1       -0.2003
      7 C          67.0035   92.6760   14.4943 C.ar    1  UNL1        0.2264
      8 CL         68.0722   93.0401   15.4819 Cl      1  UNL1       -0.0409
      9 N          66.1330   91.4791   14.7384 N.ar    1  UNL1       -0.1976
     10 C          65.0643   91.1151   13.7508 C.ar    1  UNL1        0.1680
     11 O          62.8234   90.3994   16.7165 O.3     1  UNL1       -0.3801
     12 C          63.3345   89.1133   16.1378 C.3     1  UNL1        0.1577
     13 C          63.3666   87.7847   16.8335 C.3     1  UNL1        0.1390
     14 O          62.8933   87.5090   18.2298 O.3     1  UNL1       -0.3819
     15 C          63.9552   86.7804   15.8875 C.3     1  UNL1        0.0314
     16 C          64.5637   86.0205   14.7463 C.3     1  UNL1        0.0046
     17 C          64.2869   87.4882   14.6073 C.3     1  UNL1        0.0258
     18 C          63.9032   88.9300   14.7620 C.3     1  UNL1        0.1175
     19 H          62.5110   90.2451   17.6217 H       1  UNL1        0.2105
     20 H          62.5574   88.3286   18.6251 H       1  UNL1        0.2104
     21 N          65.5384   93.9776   11.0433 N.pl3   1  UNL1       -0.3184
     22 H          64.6717   94.4145   10.8787 H       1  UNL1        0.1482
     23 C          66.6609   94.1448   10.0623 C.3     1  UNL1        0.0703
     24 C          67.6367   93.0271    9.8416 C.3     1  UNL1        0.0179
     25 C          68.6852   92.3660    8.9969 C.3     1  UNL1        0.0017
     26 C          68.2782   91.7525   10.3038 C.3     1  UNL1        0.0017
     27 C          66.8076   95.4296    9.3023 C.3     1  UNL1        0.0179
     28 C          66.5975   96.2300    8.0512 C.3     1  UNL1        0.0017
     29 C          67.2717   96.8544    9.2367 C.3     1  UNL1        0.0017
@<TRIPOS>BOND
     1    12    11    1
     2    12    13    1
     3    13    14    1
     4    13    15    1
     5    15    16    1
     6    17    16    1
     7    17    18    1
     8    18     1    1
     9     1     2   ar
    10     2     3   ar
    11     3     4   ar
    12     4     5   ar
    13     5    21    1
    14    21    23    1
    15    23    24    1
    16    24    25    1
    17    25    26    1
    18    23    27    1
    19    27    28    1
    20    28    29    1
    21     5     6   ar
    22     6     7   ar
    23     7     8    1
    24     7     9   ar
    25     9    10   ar
    26    18    12    1
    27    10     1   ar
    28    17    15    1
    29    10     4   ar
    30    26    24    1
    31    29    27    1
    32    11    19    1
    33    14    20    1
    34    21    22    1
@<TRIPOS>MOLECULE
*****
 29 34 0 0 0
SMALL
GASTEIGER

@<TRIPOS>ATOM
      1 N          62.4603   89.0258   10.5560 N.ar    1  UNL1       -0.2937
      2 C          62.4914   90.4848   10.2090 C.ar    1  UNL1        0.1798
      3 N          63.1624   91.2147   11.3346 N.ar    1  UNL1       -0.2195
      4 C          63.5460   90.2068   12.3772 C.ar    1  UNL1        0.1483
      5 C          64.2344   90.3461   13.7026 C.ar    1  UNL1        0.1518
      6 N          64.4888   89.1326   14.5468 N.ar    1  UNL1       -0.2003
      7 C          64.0549   87.7798   14.0656 C.ar    1  UNL1        0.2264
      8 CL         64.3093   86.5663   14.9098 Cl      1  UNL1       -0.0409
      9 N          63.3664   87.6405   12.7402 N.ar    1  UNL1       -0.1976
     10 C          63.1120   88.8540   11.8960 C.ar    1  UNL1        0.1680
     11 O          59.4920   89.0191    9.1998 O.3     1  UNL1       -0.3801
     12 C          60.5150   87.9278    9.0879 C.3     1  UNL1        0.1577
     13 C          60.3532   86.6417    8.3329 C.3     1  UNL1        0.1390
     14 O          59.1401   86.2212    7.5574 O.3     1  UNL1       -0.3819
     15 C          61.6176   85.8500    8.4898 C.3     1  UNL1        0.0314
     16 C          62.9751   85.3032    8.8188 C.3     1  UNL1        0.0046
     17 C          62.5608   86.6467    9.3416 C.3     1  UNL1        0.0258
     18 C          61.8793   87.9308    9.7113 C.3     1  UNL1        0.1175
     19 H          58.6965   88.7686    8.7046 H       1  UNL1        0.2105
     20 H          58.4632   86.9134    7.6156 H       1  UNL1        0.2104
     21 N          64.6684   91.6989   14.1838 N.pl3   1  UNL1       -0.3184
     22 H          64.0832   92.2207   14.7793 H       1  UNL1        0.1482
     23 C          65.9940   92.2569   13.7577 C.3     1  UNL1        0.0703
     24 C          67.1075   92.3885   14.7540 C.3     1  UNL1        0.0179
     25 C          68.5729   92.4870   15.0589 C.3     1  UNL1        0.0017
     26 C          67.5709   92.5178   16.1747 C.3     1  UNL1        0.0017
     27 C          66.2060   92.6832   12.3353 C.3     1  UNL1        0.0179
     28 C          65.8683   93.5853   11.1854 C.3     1  UNL1        0.0017
     29 C          66.9109   92.5195   11.0214 C.3     1  UNL1        0.0017
@<TRIPOS>BOND
     1    12    11    1
     2    12    13    1
     3    13    14    1
     4    13    15    1
     5    15    16    1
     6    17    16    1
     7    17    18    1
     8    18     1    1
     9     1     2   ar
    10     2     3   ar
    11     3     4   ar
    12     4     5   ar
    13     5    21    1
    14    21    23    1
    15    23    24    1
    16    24    25    1
    17    25    26    1
    18    23    27    1
    19    27    28    1
    20    28    29    1
    21     5     6   ar
    22     6     7   ar
    23     7     8    1
    24     7     9   ar
    25     9    10   ar
    26    18    12    1
    27    10     1   ar
    28    17    15    1
    29    10     4   ar
    30    26    24    1
    31    29    27    1
    32    11    19    1
    33    14    20    1
    34    21    22    1
@<TRIPOS>MOLECULE
*****
 29 34 0 0 0
SMALL
GASTEIGER

@<TRIPOS>ATOM
      1 N          62.4238   88.9932   10.5434 N.ar    1  UNL1       -0.2937
      2 C          62.4125   90.4560   10.2116 C.ar    1  UNL1        0.1798
      3 N          63.0694   91.1925   11.3412 N.ar    1  UNL1       -0.2195
      4 C          63.4866   90.1850   12.3711 C.ar    1  UNL1        0.1483
      5 C          64.1783   90.3296   13.6942 C.ar    1  UNL1        0.1518
      6 N          64.4710   89.1149   14.5243 N.ar    1  UNL1       -0.2003
      7 C          64.0720   87.7556   14.0312 C.ar    1  UNL1        0.2264
      8 CL         64.3647   86.5410   14.8612 Cl      1  UNL1       -0.0409
      9 N          63.3803   87.6110   12.7081 N.ar    1  UNL1       -0.1976
     10 C          63.0876   88.8257   11.8781 C.ar    1  UNL1        0.1680
     11 O          59.4789   88.9538    9.1378 O.3     1  UNL1       -0.3801
     12 C          60.5151   87.8732    9.0443 C.3     1  UNL1        0.1577
     13 C          60.3795   86.5848    8.2882 C.3     1  UNL1        0.1390
     14 O          59.1841   86.1507    7.4930 O.3     1  UNL1       -0.3819
     15 C          61.6494   85.8066    8.4670 C.3     1  UNL1        0.0314
     16 C          63.0069   85.2746    8.8193 C.3     1  UNL1        0.0046
     17 C          62.5698   86.6141    9.3336 C.3     1  UNL1        0.0258
     18 C          61.8687   87.8913    9.6903 C.3     1  UNL1        0.1175
     19 H          58.6944   88.6944    8.6297 H       1  UNL1        0.2105
     20 H          58.4990   86.8358    7.5391 H       1  UNL1        0.2104
     21 N          64.5774   91.6889   14.1873 N.pl3   1  UNL1       -0.3184
     22 H          63.9838   92.1856   14.7958 H       1  UNL1        0.1482
     23 C          65.8808   92.2913   13.7533 C.3     1  UNL1        0.0703
     24 C          66.0354   92.8189   12.3577 C.3     1  UNL1        0.0179
     25 C          66.3539   92.5892   10.9100 C.3     1  UNL1        0.0017
     26 C          65.9847   93.9622   11.3881 C.3     1  UNL1        0.0017
     27 C          67.0295   92.3662   14.7150 C.3     1  UNL1        0.0179
     28 C          67.5451   92.3909   16.1234 C.3     1  UNL1        0.0017
     29 C          68.5035   92.4711   14.9723 C.3     1  UNL1        0.0017
@<TRIPOS>BOND
     1    12    11    1
     2    12    13    1
     3    13    14    1
     4    13    15    1
     5    15    16    1
     6    17    16    1
     7    17    18    1
     8    18     1    1
     9     1     2   ar
    10     2     3   ar
    11     3     4   ar
    12     4     5   ar
    13     5    21    1
    14    21    23    1
    15    23    24    1
    16    24    25    1
    17    25    26    1
    18    23    27    1
    19    27    28    1
    20    28    29    1
    21     5     6   ar
    22     6     7   ar
    23     7     8    1
    24     7     9   ar
    25     9    10   ar
    26    18    12    1
    27    10     1   ar
    28    17    15    1
    29    10     4   ar
    30    26    24    1
    31    29    27    1
    32    11    19    1
    33    14    20    1
    34    21    22    1
@<TRIPOS>MOLECULE
*****
 29 34 0 0 0
SMALL
GASTEIGER

@<TRIPOS>ATOM
      1 N          63.8450   85.6651   13.6870 N.ar    1  UNL1       -0.2937
      2 C          64.4894   86.2623   14.9027 C.ar    1  UNL1        0.1798
      3 N          64.3456   87.7530   14.8185 N.ar    1  UNL1       -0.2195
      4 C          63.6123   88.0771   13.5507 C.ar    1  UNL1        0.1483
      5 C          63.1863   89.3805   12.9427 C.ar    1  UNL1        0.1518
      6 N          62.4509   89.3935   11.6354 N.ar    1  UNL1       -0.2003
      7 C          62.1415   88.1030   10.9361 C.ar    1  UNL1        0.2264
      8 CL         61.4061   88.1160    9.6288 Cl      1  UNL1       -0.0409
      9 N          62.5675   86.7996   11.5441 N.ar    1  UNL1       -0.1976
     10 C          63.3029   86.7867   12.8514 C.ar    1  UNL1        0.1680
     11 O          62.9042   83.3013   15.7308 O.3     1  UNL1       -0.3801
     12 C          63.3255   83.1164   14.3030 C.3     1  UNL1        0.1577
     13 C          63.3883   81.8125   13.5640 C.3     1  UNL1        0.1390
     14 O          63.0409   80.4647   14.1230 O.3     1  UNL1       -0.3819
     15 C          63.8595   82.0934   12.1679 C.3     1  UNL1        0.0314
     16 C          64.3386   82.6720   10.8696 C.3     1  UNL1        0.0046
     17 C          64.0880   83.5707   12.0440 C.3     1  UNL1        0.0258
     18 C          63.7579   84.2030   13.3636 C.3     1  UNL1        0.1175
     19 H          62.6741   82.4404   16.1140 H       1  UNL1        0.2105
     20 H          62.7648   80.5597   15.0480 H       1  UNL1        0.2104
     21 N          63.4957   90.6709   13.6420 N.pl3   1  UNL1       -0.3184
     22 H          62.8858   91.0142   14.3344 H       1  UNL1        0.1482
     23 C          64.7345   91.4385   13.2863 C.3     1  UNL1        0.0703
     24 C          65.7726   91.7140   14.3334 C.3     1  UNL1        0.0179
     25 C          66.1671   92.3388   15.6387 C.3     1  UNL1        0.0017
     26 C          67.1761   91.5662   14.8417 C.3     1  UNL1        0.0017
     27 C          64.9351   91.9304   11.8836 C.3     1  UNL1        0.0179
     28 C          64.4208   92.1195   10.4873 C.3     1  UNL1        0.0017
     29 C          65.7969   92.5934   10.8503 C.3     1  UNL1        0.0017
@<TRIPOS>BOND
     1    12    11    1
     2    12    13    1
     3    13    14    1
     4    13    15    1
     5    15    16    1
     6    17    16    1
     7    17    18    1
     8    18     1    1
     9     1     2   ar
    10     2     3   ar
    11     3     4   ar
    12     4     5   ar
    13     5    21    1
    14    21    23    1
    15    23    24    1
    16    24    25    1
    17    25    26    1
    18    23    27    1
    19    27    28    1
    20    28    29    1
    21     5     6   ar
    22     6     7   ar
    23     7     8    1
    24     7     9   ar
    25     9    10   ar
    26    18    12    1
    27    10     1   ar
    28    17    15    1
    29    10     4   ar
    30    26    24    1
    31    29    27    1
    32    11    19    1
    33    14    20    1
    34    21    22    1
@<TRIPOS>MOLECULE
*****
 29 34 0 0 0
SMALL
GASTEIGER

@<TRIPOS>ATOM
      1 N          63.8222   85.8053   13.7093 N.ar    1  UNL1       -0.2937
      2 C          64.4698   86.4119   14.9187 C.ar    1  UNL1        0.1798
      3 N          64.3468   87.9030   14.8114 N.ar    1  UNL1       -0.2195
      4 C          63.6232   88.2179   13.5357 C.ar    1  UNL1        0.1483
      5 C          63.2177   89.5176   12.9064 C.ar    1  UNL1        0.1518
      6 N          62.4879   89.5209   11.5958 N.ar    1  UNL1       -0.2003
      7 C          62.1637   88.2244   10.9146 C.ar    1  UNL1        0.2264
      8 CL         61.4340   88.2277    9.6041 Cl      1  UNL1       -0.0409
      9 N          62.5693   86.9246   11.5441 N.ar    1  UNL1       -0.1976
     10 C          63.2990   86.9214   12.8546 C.ar    1  UNL1        0.1680
     11 O          62.7138   83.5039   15.7402 O.3     1  UNL1       -0.3801
     12 C          63.2070   83.2819   14.3411 C.3     1  UNL1        0.1577
     13 C          63.2772   81.9631   13.6297 C.3     1  UNL1        0.1390
     14 O          62.8667   80.6348   14.1927 O.3     1  UNL1       -0.3819
     15 C          63.8301   82.2060   12.2567 C.3     1  UNL1        0.0314
     16 C          64.3929   82.7482   10.9764 C.3     1  UNL1        0.0046
     17 C          64.1016   83.6748   12.1193 C.3     1  UNL1        0.0258
     18 C          63.7164   84.3397   13.4076 C.3     1  UNL1        0.1175
     19 H          62.4420   82.6562   16.1255 H       1  UNL1        0.2105
     20 H          62.5433   80.7539   15.0994 H       1  UNL1        0.2104
     21 N          63.5419   90.8142   13.5875 N.pl3   1  UNL1       -0.3184
     22 H          62.9237   91.1865   14.2571 H       1  UNL1        0.1482
     23 C          64.8081   91.5434   13.2483 C.3     1  UNL1        0.0703
     24 C          65.0283   92.0563   11.8561 C.3     1  UNL1        0.0179
     25 C          65.8770   92.7916   10.8616 C.3     1  UNL1        0.0017
     26 C          64.5608   92.2094   10.4390 C.3     1  UNL1        0.0017
     27 C          65.8541   91.7598   14.3015 C.3     1  UNL1        0.0179
     28 C          66.2606   92.3171   15.6334 C.3     1  UNL1        0.0017
     29 C          67.2592   91.5772   14.7936 C.3     1  UNL1        0.0017
@<TRIPOS>BOND
     1    12    11    1
     2    12    13    1
     3    13    14    1
     4    13    15    1
     5    15    16    1
     6    17    16    1
     7    17    18    1
     8    18     1    1
     9     1     2   ar
    10     2     3   ar
    11     3     4   ar
    12     4     5   ar
    13     5    21    1
    14    21    23    1
    15    23    24    1
    16    24    25    1
    17    25    26    1
    18    23    27    1
    19    27    28    1
    20    28    29    1
    21     5     6   ar
    22     6     7   ar
    23     7     8    1
    24     7     9   ar
    25     9    10   ar
    26    18    12    1
    27    10     1   ar
    28    17    15    1
    29    10     4   ar
    30    26    24    1
    31    29    27    1
    32    11    19    1
    33    14    20    1
    34    21    22    1
@<TRIPOS>MOLECULE
*****
 29 34 0 0 0
SMALL
GASTEIGER

@<TRIPOS>ATOM
      1 N          62.1691   86.9121   10.7092 N.ar    1  UNL1       -0.2937
      2 C          61.9600   86.0185    9.5227 C.ar    1  UNL1        0.1798
      3 N          62.5377   84.6730    9.8483 N.ar    1  UNL1       -0.2195
      4 C          63.1038   84.7350   11.2359 C.ar    1  UNL1        0.1483
      5 C          63.7973   83.7102   12.0837 C.ar    1  UNL1        0.1518
      6 N          64.2630   84.0692   13.4637 N.ar    1  UNL1       -0.2003
      7 C          64.0352   85.4530   13.9959 C.ar    1  UNL1        0.2264
      8 CL         64.5009   85.8120   15.3758 Cl      1  UNL1       -0.0409
      9 N          63.3417   86.4778   13.1480 N.ar    1  UNL1       -0.1976
     10 C          62.8760   86.1189   11.7681 C.ar    1  UNL1        0.1680
     11 O          59.2840   87.9837   11.7943 O.3     1  UNL1       -0.3801
     12 C          60.4195   88.8395   11.3166 C.3     1  UNL1        0.1577
     13 C          60.4283   90.3382   11.2539 C.3     1  UNL1        0.1390
     14 O          59.3031   91.2441   11.6577 O.3     1  UNL1       -0.3819
     15 C          61.7599   90.7718   10.7163 C.3     1  UNL1        0.0314
     16 C          63.1503   90.8976   10.1679 C.3     1  UNL1        0.0046
     17 C          62.5740   89.5412   10.4469 C.3     1  UNL1        0.0258
     18 C          61.7457   88.3469   10.8179 C.3     1  UNL1        0.1175
     19 H          58.5428   88.5495   12.0615 H       1  UNL1        0.2105
     20 H          58.5555   90.7113   11.9710 H       1  UNL1        0.2104
     21 N          64.0251   82.3264   11.5516 N.pl3   1  UNL1       -0.3184
     22 H          64.8239   82.1327   11.0097 H       1  UNL1        0.1482
     23 C          63.0358   81.2377   11.8451 C.3     1  UNL1        0.0703
     24 C          62.8768   80.0915   10.8906 C.3     1  UNL1        0.0179
     25 C          62.7294   79.5796    9.4884 C.3     1  UNL1        0.0017
     26 C          62.7488   78.6183   10.6397 C.3     1  UNL1        0.0017
     27 C          62.2055   81.2952   13.0930 C.3     1  UNL1        0.0179
     28 C          61.9665   81.8391   14.4703 C.3     1  UNL1        0.0017
     29 C          61.0065   80.8510   13.8772 C.3     1  UNL1        0.0017
@<TRIPOS>BOND
     1    12    11    1
     2    12    13    1
     3    13    14    1
     4    13    15    1
     5    15    16    1
     6    17    16    1
     7    17    18    1
     8    18     1    1
     9     1     2   ar
    10     2     3   ar
    11     3     4   ar
    12     4     5   ar
    13     5    21    1
    14    21    23    1
    15    23    24    1
    16    24    25    1
    17    25    26    1
    18    23    27    1
    19    27    28    1
    20    28    29    1
    21     5     6   ar
    22     6     7   ar
    23     7     8    1
    24     7     9   ar
    25     9    10   ar
    26    18    12    1
    27    10     1   ar
    28    17    15    1
    29    10     4   ar
    30    26    24    1
    31    29    27    1
    32    11    19    1
    33    14    20    1
    34    21    22    1
@<TRIPOS>MOLECULE
*****
 29 34 0 0 0
SMALL
GASTEIGER

@<TRIPOS>ATOM
      1 N          62.1648   86.9133   10.6903 N.ar    1  UNL1       -0.2937
      2 C          61.9556   86.0233    9.5011 C.ar    1  UNL1        0.1798
      3 N          62.5324   84.6766    9.8229 N.ar    1  UNL1       -0.2195
      4 C          63.0981   84.7342   11.2110 C.ar    1  UNL1        0.1483
      5 C          63.7907   83.7066   12.0561 C.ar    1  UNL1        0.1518
      6 N          64.2561   84.0613   13.4373 N.ar    1  UNL1       -0.2003
      7 C          64.0289   85.4437   13.9733 C.ar    1  UNL1        0.2264
      8 CL         64.4943   85.7984   15.3544 Cl      1  UNL1       -0.0409
      9 N          63.3363   86.4714   13.1282 N.ar    1  UNL1       -0.1976
     10 C          62.8709   86.1166   11.7471 C.ar    1  UNL1        0.1680
     11 O          59.2675   87.9822   11.7452 O.3     1  UNL1       -0.3801
     12 C          60.4103   88.8394   11.2878 C.3     1  UNL1        0.1577
     13 C          60.4221   90.3385   11.2351 C.3     1  UNL1        0.1390
     14 O          59.2932   91.2435   11.6304 O.3     1  UNL1       -0.3819
     15 C          61.7612   90.7735   10.7176 C.3     1  UNL1        0.0314
     16 C          63.1587   90.9008   10.1880 C.3     1  UNL1        0.0046
     17 C          62.5769   89.5434   10.4505 C.3     1  UNL1        0.0258
     18 C          61.7421   88.3481   10.8030 C.3     1  UNL1        0.1175
     19 H          58.5238   88.5475   12.0066 H       1  UNL1        0.2105
     20 H          58.5408   90.7098   11.9304 H       1  UNL1        0.2104
     21 N          64.0179   82.3242   11.5200 N.pl3   1  UNL1       -0.3184
     22 H          64.8115   82.1341   10.9692 H       1  UNL1        0.1482
     23 C          63.0361   81.2314   11.8232 C.3     1  UNL1        0.0703
     24 C          62.2117   81.2900   13.0749 C.3     1  UNL1        0.0179
     25 C          61.9847   81.8270   14.4570 C.3     1  UNL1        0.0017
     26 C          61.0107   80.8543   13.8610 C.3     1  UNL1        0.0017
     27 C          62.8786   80.0802   10.8746 C.3     1  UNL1        0.0179
     28 C          62.7182   79.5618    9.4762 C.3     1  UNL1        0.0017
     29 C          62.7664   78.6046   10.6300 C.3     1  UNL1        0.0017
@<TRIPOS>BOND
     1    12    11    1
     2    12    13    1
     3    13    14    1
     4    13    15    1
     5    15    16    1
     6    17    16    1
     7    17    18    1
     8    18     1    1
     9     1     2   ar
    10     2     3   ar
    11     3     4   ar
    12     4     5   ar
    13     5    21    1
    14    21    23    1
    15    23    24    1
    16    24    25    1
    17    25    26    1
    18    23    27    1
    19    27    28    1
    20    28    29    1
    21     5     6   ar
    22     6     7   ar
    23     7     8    1
    24     7     9   ar
    25     9    10   ar
    26    18    12    1
    27    10     1   ar
    28    17    15    1
    29    10     4   ar
    30    26    24    1
    31    29    27    1
    32    11    19    1
    33    14    20    1
    34    21    22    1
@<TRIPOS>MOLECULE
*****
 29 34 0 0 0
SMALL
GASTEIGER

@<TRIPOS>ATOM
      1 N          63.4674   90.3125   12.4932 N.ar    1  UNL1       -0.2937
      2 C          62.4960   90.7812   11.4509 C.ar    1  UNL1        0.1798
      3 N          61.7348   89.5870   10.9564 N.ar    1  UNL1       -0.2195
      4 C          62.2358   88.3803   11.6932 C.ar    1  UNL1        0.1483
      5 C          61.8552   86.9311   11.6219 C.ar    1  UNL1        0.1518
      6 N          62.5455   85.9303   12.5005 N.ar    1  UNL1       -0.2003
      7 C          63.6164   86.3787   13.4503 C.ar    1  UNL1        0.2264
      8 CL         64.3067   85.3779   14.3289 Cl      1  UNL1       -0.0409
      9 N          63.9969   87.8279   13.5216 N.ar    1  UNL1       -0.1976
     10 C          63.3066   88.8287   12.6430 C.ar    1  UNL1        0.1680
     11 O          63.5860   90.6610   15.7358 O.3     1  UNL1       -0.3801
     12 C          64.4851   91.3362   14.7430 C.3     1  UNL1        0.1577
     13 C          65.5967   92.2901   15.0664 C.3     1  UNL1        0.1390
     14 O          66.0042   92.7363   16.4392 O.3     1  UNL1       -0.3819
     15 C          66.2291   92.7195   13.7757 C.3     1  UNL1        0.0314
     16 C          66.6474   92.9599   12.3555 C.3     1  UNL1        0.0046
     17 C          65.5085   92.0309   12.6547 C.3     1  UNL1        0.0258
     18 C          64.4306   91.1760   13.2526 C.3     1  UNL1        0.1175
     19 H          63.8315   90.9352   16.6332 H       1  UNL1        0.2105
     20 H          65.4349   92.3113   17.0996 H       1  UNL1        0.2104
     21 N          60.7843   86.4828   10.6721 N.pl3   1  UNL1       -0.3184
     22 H          59.9433   86.1075   11.0200 H       1  UNL1        0.1482
     23 C          60.9949   86.6062    9.1920 C.3     1  UNL1        0.0703
     24 C          62.0178   85.7500    8.5060 C.3     1  UNL1        0.0179
     25 C          62.4740   84.9874    7.2976 C.3     1  UNL1        0.0017
     26 C          63.3334   85.0297    8.5263 C.3     1  UNL1        0.0017
     27 C          60.1825   87.5857    8.3980 C.3     1  UNL1        0.0179
     28 C          59.8784   88.9994    7.9992 C.3     1  UNL1        0.0017
     29 C          59.0796   87.8688    7.4216 C.3     1  UNL1        0.0017
@<TRIPOS>BOND
     1    12    11    1
     2    12    13    1
     3    13    14    1
     4    13    15    1
     5    15    16    1
     6    17    16    1
     7    17    18    1
     8    18     1    1
     9     1     2   ar
    10     2     3   ar
    11     3     4   ar
    12     4     5   ar
    13     5    21    1
    14    21    23    1
    15    23    24    1
    16    24    25    1
    17    25    26    1
    18    23    27    1
    19    27    28    1
    20    28    29    1
    21     5     6   ar
    22     6     7   ar
    23     7     8    1
    24     7     9   ar
    25     9    10   ar
    26    18    12    1
    27    10     1   ar
    28    17    15    1
    29    10     4   ar
    30    26    24    1
    31    29    27    1
    32    11    19    1
    33    14    20    1
    34    21    22    1
