@<TRIPOS>MOLECULE
*****
 29 32 0 0 0
SMALL
GASTEIGER

@<TRIPOS>ATOM
      1 C          63.3237   89.9448   16.8983 C.3     1  UNL1        0.0334
      2 C          63.4705   88.5601   16.3408 C.ar    1  UNL1        0.0071
      3 C          63.1412   87.3699   17.1923 C.ar    1  UNL1        0.1363
      4 F          62.6651   87.5646   18.6015 F       1  UNL1       -0.2045
      5 C          63.2881   85.9851   16.6349 C.ar    1  UNL1        0.0338
      6 C          63.7642   85.7905   15.2258 C.ar    1  UNL1        0.0556
      7 C          64.0935   86.9806   14.3743 C.ar    1  UNL1        0.0058
      8 C          63.9466   88.3654   14.9318 C.ar    1  UNL1        0.0160
      9 C          64.2759   89.5556   14.0802 C.ar    1  UNL1        0.0811
     10 C          63.4977   89.8180   12.8250 C.ar    1  UNL1        0.0193
     11 C          63.8269   91.0080   11.9734 C.ar    1  UNL1        0.0076
     12 C          64.9344   91.9358   12.3770 C.ar    1  UNL1        0.0725
     13 C          65.7126   91.6734   13.6322 C.ar    1  UNL1        0.1033
     14 N          65.3833   90.4832   14.4838 N.ar    1  UNL1       -0.2437
     15 C          65.2637   93.1259   11.5254 C.2     1  UNL1        0.2474
     16 O          64.8424   93.1578   10.0861 O.2     1  UNL1       -0.2701
     17 N          66.0142   94.2841   12.1130 N.am    1  UNL1       -0.3008
     18 H          66.2907   94.2631   13.0577 H       1  UNL1        0.1497
     19 C          66.3434   95.4741   11.2614 C.3     1  UNL1        0.0896
     20 C          67.1074   95.2935    9.9833 C.3     1  UNL1        0.0196
     21 C          67.9885   94.4568    9.1038 C.3     1  UNL1        0.0017
     22 C          67.5497   95.8172    8.6491 C.3     1  UNL1        0.0017
     23 C          63.9110   84.4057   14.6684 C.2     1  UNL1        0.2459
     24 O          65.2578   83.9133   14.2283 O.2     1  UNL1       -0.2701
     25 N          62.7111   83.5133   14.5509 N.am    1  UNL1       -0.3025
     26 H          61.8272   83.8365   14.8397 H       1  UNL1        0.1497
     27 C          62.8580   82.1285   13.9934 C.3     1  UNL1        0.0720
     28 C          63.5880   81.1495   13.1225 C.3     1  UNL1        0.0213
     29 C          62.3823   80.7091   13.8988 C.3     1  UNL1        0.0213
@<TRIPOS>BOND
     1     1     2    1
     2     2     3   ar
     3     3     4    1
     4     3     5   ar
     5     5     6   ar
     6     6    23    1
     7    23    24    2
     8    23    25   am
     9    25    27    1
    10    27    28    1
    11    28    29    1
    12     6     7   ar
    13     7     8   ar
    14     8     9    1
    15     9    10   ar
    16    10    11   ar
    17    11    12   ar
    18    12    15    1
    19    15    16    2
    20    15    17   am
    21    17    19    1
    22    19    20    1
    23    20    21    1
    24    21    22    1
    25    12    13   ar
    26    13    14   ar
    27     8     2   ar
    28    14     9   ar
    29    29    27    1
    30    22    20    1
    31    25    26    1
    32    17    18    1
@<TRIPOS>MOLECULE
*****
 29 32 0 0 0
SMALL
GASTEIGER

@<TRIPOS>ATOM
      1 C          62.9173   86.5605   11.8396 C.3     1  UNL1        0.0334
      2 C          62.0419   87.1445   10.7706 C.ar    1  UNL1        0.0071
      3 C          61.2051   86.2437    9.9114 C.ar    1  UNL1        0.1363
      4 F          61.2437   84.7589   10.1211 F       1  UNL1       -0.2045
      5 C          60.3297   86.8277    8.8424 C.ar    1  UNL1        0.0338
      6 C          60.2911   88.3124    8.6327 C.ar    1  UNL1        0.0556
      7 C          61.1279   89.2132    9.4920 C.ar    1  UNL1        0.0058
      8 C          62.0033   88.6292   10.5609 C.ar    1  UNL1        0.0160
      9 C          62.8401   89.5301   11.4202 C.ar    1  UNL1        0.0811
     10 C          63.4877   90.7451   10.8250 C.ar    1  UNL1        0.0193
     11 C          64.3245   91.6460   11.6841 C.ar    1  UNL1        0.0076
     12 C          64.5137   91.3318   13.1387 C.ar    1  UNL1        0.0725
     13 C          63.8661   90.1168   13.7339 C.ar    1  UNL1        0.1033
     14 N          63.0293   89.2159   12.8746 N.ar    1  UNL1       -0.2437
     15 C          65.3504   92.2326   13.9979 C.2     1  UNL1        0.2474
     16 O          65.9082   93.5043   13.4306 O.2     1  UNL1       -0.2701
     17 N          65.6295   91.8618   15.4243 N.am    1  UNL1       -0.3008
     18 H          65.2634   91.0272   15.7965 H       1  UNL1        0.1497
     19 C          66.4663   92.7627   16.2834 C.3     1  UNL1        0.0896
     20 C          67.8881   93.0529   15.9038 C.3     1  UNL1        0.0196
     21 C          69.1164   93.9055   16.0233 C.3     1  UNL1        0.0017
     22 C          69.1225   92.7029   15.1268 C.3     1  UNL1        0.0017
     23 C          59.4157   88.8964    7.5638 C.2     1  UNL1        0.2459
     24 O          58.1473   88.1996    7.1694 O.2     1  UNL1       -0.2701
     25 N          59.8087   90.1771    6.8891 N.am    1  UNL1       -0.3025
     26 H          60.6413   90.6345    7.1479 H       1  UNL1        0.1497
     27 C          58.9333   90.7611    5.8202 C.3     1  UNL1        0.0720
     28 C          57.5756   90.9449    5.2097 C.3     1  UNL1        0.0213
     29 C          58.7749   91.5887    4.5793 C.3     1  UNL1        0.0213
@<TRIPOS>BOND
     1     1     2    1
     2     2     3   ar
     3     3     4    1
     4     3     5   ar
     5     5     6   ar
     6     6    23    1
     7    23    24    2
     8    23    25   am
     9    25    27    1
    10    27    28    1
    11    28    29    1
    12     6     7   ar
    13     7     8   ar
    14     8     9    1
    15     9    10   ar
    16    10    11   ar
    17    11    12   ar
    18    12    15    1
    19    15    16    2
    20    15    17   am
    21    17    19    1
    22    19    20    1
    23    20    21    1
    24    21    22    1
    25    12    13   ar
    26    13    14   ar
    27     8     2   ar
    28    14     9   ar
    29    29    27    1
    30    22    20    1
    31    25    26    1
    32    17    18    1
@<TRIPOS>MOLECULE
*****
 29 32 0 0 0
SMALL
GASTEIGER

@<TRIPOS>ATOM
      1 C          62.1879   88.5011   10.9957 C.3     1  UNL1        0.0334
      2 C          63.0717   89.2965   11.9102 C.ar    1  UNL1        0.0071
      3 C          63.2923   90.7582   11.6559 C.ar    1  UNL1        0.1363
      4 F          62.6290   91.4246   10.4871 F       1  UNL1       -0.2045
      5 C          64.1761   91.5535   12.5704 C.ar    1  UNL1        0.0338
      6 C          64.8394   90.8872   13.7392 C.ar    1  UNL1        0.0556
      7 C          64.6188   89.4254   13.9934 C.ar    1  UNL1        0.0058
      8 C          63.7350   88.6301   13.0789 C.ar    1  UNL1        0.0160
      9 C          63.5145   87.1683   13.3332 C.ar    1  UNL1        0.0811
     10 C          64.0663   86.5313   14.5741 C.ar    1  UNL1        0.0193
     11 C          63.8458   85.0696   14.8284 C.ar    1  UNL1        0.0076
     12 C          63.0734   84.2448   13.8418 C.ar    1  UNL1        0.0725
     13 C          62.5217   84.8818   12.6009 C.ar    1  UNL1        0.1033
     14 N          62.7422   86.3436   12.3466 N.ar    1  UNL1       -0.2437
     15 C          62.8530   82.7831   14.0961 C.2     1  UNL1        0.2474
     16 O          63.9733   81.9362   14.6230 O.2     1  UNL1       -0.2701
     17 N          61.5122   82.1682   13.8236 N.am    1  UNL1       -0.3008
     18 H          60.7769   82.7241   13.4777 H       1  UNL1        0.1497
     19 C          61.2917   80.7065   14.0779 C.3     1  UNL1        0.0896
     20 C          59.8996   80.1787   14.2611 C.3     1  UNL1        0.0196
     21 C          58.4156   80.3970   14.2496 C.3     1  UNL1        0.0017
     22 C          58.9725   79.0464   14.5899 C.3     1  UNL1        0.0017
     23 C          65.7232   91.6825   14.6537 C.2     1  UNL1        0.2459
     24 O          65.1344   92.3884   15.8390 O.2     1  UNL1       -0.2701
     25 N          67.1958   91.7720   14.3829 N.am    1  UNL1       -0.3025
     26 H          67.5822   91.3086   13.6049 H       1  UNL1        0.1497
     27 C          68.0796   92.5673   15.2974 C.3     1  UNL1        0.0720
     28 C          68.6540   93.8845   15.7273 C.3     1  UNL1        0.0213
     29 C          69.0359   92.6276   16.4514 C.3     1  UNL1        0.0213
@<TRIPOS>BOND
     1     1     2    1
     2     2     3   ar
     3     3     4    1
     4     3     5   ar
     5     5     6   ar
     6     6    23    1
     7    23    24    2
     8    23    25   am
     9    25    27    1
    10    27    28    1
    11    28    29    1
    12     6     7   ar
    13     7     8   ar
    14     8     9    1
    15     9    10   ar
    16    10    11   ar
    17    11    12   ar
    18    12    15    1
    19    15    16    2
    20    15    17   am
    21    17    19    1
    22    19    20    1
    23    20    21    1
    24    21    22    1
    25    12    13   ar
    26    13    14   ar
    27     8     2   ar
    28    14     9   ar
    29    29    27    1
    30    22    20    1
    31    25    26    1
    32    17    18    1
@<TRIPOS>MOLECULE
*****
 29 32 0 0 0
SMALL
GASTEIGER

@<TRIPOS>ATOM
      1 C          61.9866   88.6051   10.5565 C.3     1  UNL1        0.0334
      2 C          62.8525   89.3301   11.5437 C.ar    1  UNL1        0.0071
      3 C          63.0765   90.8065   11.4025 C.ar    1  UNL1        0.1363
      4 F          62.4346   91.5580   10.2741 F       1  UNL1       -0.2045
      5 C          63.9425   91.5314   12.3897 C.ar    1  UNL1        0.0338
      6 C          64.5844   90.7800   13.5181 C.ar    1  UNL1        0.0556
      7 C          64.3604   89.3036   13.6593 C.ar    1  UNL1        0.0058
      8 C          63.4944   88.5786   12.6721 C.ar    1  UNL1        0.0160
      9 C          63.2704   87.1021   12.8133 C.ar    1  UNL1        0.0811
     10 C          62.5859   86.3393   11.7181 C.ar    1  UNL1        0.0193
     11 C          62.3618   84.8629   11.8593 C.ar    1  UNL1        0.0076
     12 C          62.8224   84.1492   13.0957 C.ar    1  UNL1        0.0725
     13 C          63.5070   84.9120   14.1909 C.ar    1  UNL1        0.1033
     14 N          63.7310   86.3885   14.0497 N.ar    1  UNL1       -0.2437
     15 C          62.5984   82.6728   13.2368 C.2     1  UNL1        0.2474
     16 O          62.0489   82.1167   14.5170 O.2     1  UNL1       -0.2701
     17 N          62.9238   81.7525   12.0979 N.am    1  UNL1       -0.3008
     18 H          63.2845   82.1176   11.2577 H       1  UNL1        0.1497
     19 C          62.6998   80.2761   12.2391 C.3     1  UNL1        0.0896
     20 C          62.7372   79.3926   11.0275 C.3     1  UNL1        0.0196
     21 C          62.7479   78.0214   10.4195 C.3     1  UNL1        0.0017
     22 C          62.7914   79.2336    9.5369 C.3     1  UNL1        0.0017
     23 C          65.4503   91.5050   14.5053 C.2     1  UNL1        0.2459
     24 O          64.8388   92.1224   15.7279 O.2     1  UNL1       -0.2701
     25 N          66.9278   91.6126   14.2699 N.am    1  UNL1       -0.3025
     26 H          67.3292   91.2074   13.4674 H       1  UNL1        0.1497
     27 C          67.7938   92.3376   15.2571 C.3     1  UNL1        0.0720
     28 C          68.3456   93.6203   15.8047 C.3     1  UNL1        0.0213
     29 C          68.7417   92.3105   16.4192 C.3     1  UNL1        0.0213
@<TRIPOS>BOND
     1     1     2    1
     2     2     3   ar
     3     3     4    1
     4     3     5   ar
     5     5     6   ar
     6     6    23    1
     7    23    24    2
     8    23    25   am
     9    25    27    1
    10    27    28    1
    11    28    29    1
    12     6     7   ar
    13     7     8   ar
    14     8     9    1
    15     9    10   ar
    16    10    11   ar
    17    11    12   ar
    18    12    15    1
    19    15    16    2
    20    15    17   am
    21    17    19    1
    22    19    20    1
    23    20    21    1
    24    21    22    1
    25    12    13   ar
    26    13    14   ar
    27     8     2   ar
    28    14     9   ar
    29    29    27    1
    30    22    20    1
    31    25    26    1
    32    17    18    1
@<TRIPOS>MOLECULE
*****
 29 32 0 0 0
SMALL
GASTEIGER

@<TRIPOS>ATOM
      1 C          63.1897   89.3890   16.6273 C.3     1  UNL1        0.0334
      2 C          63.9653   90.2153   15.6446 C.ar    1  UNL1        0.0071
      3 C          64.2121   91.6695   15.9173 C.ar    1  UNL1        0.1363
      4 F          63.6834   92.2974   17.1728 F       1  UNL1       -0.2045
      5 C          64.9876   92.4958   14.9345 C.ar    1  UNL1        0.0338
      6 C          65.5163   91.8679   13.6791 C.ar    1  UNL1        0.0556
      7 C          65.2694   90.4137   13.4064 C.ar    1  UNL1        0.0058
      8 C          64.4939   89.5874   14.3891 C.ar    1  UNL1        0.0160
      9 C          64.2471   88.1332   14.1164 C.ar    1  UNL1        0.0811
     10 C          64.8272   87.0906   15.0255 C.ar    1  UNL1        0.0193
     11 C          64.5804   85.6364   14.7528 C.ar    1  UNL1        0.0076
     12 C          63.7535   85.2248   13.5709 C.ar    1  UNL1        0.0725
     13 C          63.1734   86.2673   12.6617 C.ar    1  UNL1        0.1033
     14 N          63.4203   87.7216   12.9345 N.ar    1  UNL1       -0.2437
     15 C          63.5067   83.7706   13.2982 C.2     1  UNL1        0.2474
     16 O          63.8789   82.7415   14.3240 O.2     1  UNL1       -0.2701
     17 N          62.8877   83.3455   11.9997 N.am    1  UNL1       -0.3008
     18 H          62.6434   84.0210   11.3264 H       1  UNL1        0.1497
     19 C          62.6409   81.8914   11.7269 C.3     1  UNL1        0.0896
     20 C          62.0975   81.0069   12.8097 C.3     1  UNL1        0.0196
     21 C          62.1079   79.7011   13.5479 C.3     1  UNL1        0.0017
     22 C          61.1460   80.7807   13.9470 C.3     1  UNL1        0.0017
     23 C          66.2918   92.6942   12.6963 C.2     1  UNL1        0.2459
     24 O          67.7603   92.4535   12.5080 O.2     1  UNL1       -0.2701
     25 N          65.5988   93.7612   11.9019 N.am    1  UNL1       -0.3025
     26 H          64.6349   93.9192   12.0254 H       1  UNL1        0.1497
     27 C          66.3743   94.5875   10.9191 C.3     1  UNL1        0.0720
     28 C          66.8061   95.9288   10.4049 C.3     1  UNL1        0.0213
     29 C          67.2857   94.6774    9.7312 C.3     1  UNL1        0.0213
@<TRIPOS>BOND
     1     1     2    1
     2     2     3   ar
     3     3     4    1
     4     3     5   ar
     5     5     6   ar
     6     6    23    1
     7    23    24    2
     8    23    25   am
     9    25    27    1
    10    27    28    1
    11    28    29    1
    12     6     7   ar
    13     7     8   ar
    14     8     9    1
    15     9    10   ar
    16    10    11   ar
    17    11    12   ar
    18    12    15    1
    19    15    16    2
    20    15    17   am
    21    17    19    1
    22    19    20    1
    23    20    21    1
    24    21    22    1
    25    12    13   ar
    26    13    14   ar
    27     8     2   ar
    28    14     9   ar
    29    29    27    1
    30    22    20    1
    31    25    26    1
    32    17    18    1
@<TRIPOS>MOLECULE
*****
 29 32 0 0 0
SMALL
GASTEIGER

@<TRIPOS>ATOM
      1 C          61.2191   89.1881   10.1558 C.3     1  UNL1        0.0334
      2 C          61.5832   87.7696   10.4807 C.ar    1  UNL1        0.0071
      3 C          60.9363   86.6398    9.7357 C.ar    1  UNL1        0.1363
      4 F          59.9252   86.9284    8.6659 F       1  UNL1       -0.2045
      5 C          61.3005   85.2214   10.0605 C.ar    1  UNL1        0.0338
      6 C          62.3115   84.9328   11.1303 C.ar    1  UNL1        0.0556
      7 C          62.9584   86.0626   11.8753 C.ar    1  UNL1        0.0058
      8 C          62.5943   87.4811   11.5504 C.ar    1  UNL1        0.0160
      9 C          63.2412   88.6109   12.2955 C.ar    1  UNL1        0.0811
     10 C          63.3102   89.9754   11.6763 C.ar    1  UNL1        0.0193
     11 C          63.9571   91.1052   12.4212 C.ar    1  UNL1        0.0076
     12 C          64.5351   90.8706   13.7854 C.ar    1  UNL1        0.0725
     13 C          64.4661   89.5061   14.4046 C.ar    1  UNL1        0.1033
     14 N          63.8192   88.3762   13.6596 N.ar    1  UNL1       -0.2437
     15 C          65.1820   92.0004   14.5303 C.2     1  UNL1        0.2474
     16 O          64.7369   92.3321   15.9238 O.2     1  UNL1       -0.2701
     17 N          66.2740   92.7984   13.8818 N.am    1  UNL1       -0.3008
     18 H          66.5661   92.5807   12.9672 H       1  UNL1        0.1497
     19 C          66.9209   93.9283   14.6268 C.3     1  UNL1        0.0896
     20 C          68.1301   93.6714   15.4764 C.3     1  UNL1        0.0196
     21 C          69.3757   94.1694   16.1475 C.3     1  UNL1        0.0017
     22 C          68.9787   92.7287   16.2770 C.3     1  UNL1        0.0017
     23 C          62.6757   83.5144   11.4551 C.2     1  UNL1        0.2459
     24 O          63.4028   82.6767   10.4455 O.2     1  UNL1       -0.2701
     25 N          62.3126   82.9337   12.7896 N.am    1  UNL1       -0.3025
     26 H          61.8354   83.4835   13.4523 H       1  UNL1        0.1497
     27 C          62.6768   81.5153   13.1145 C.3     1  UNL1        0.0720
     28 C          63.5852   80.5286   13.7861 C.3     1  UNL1        0.0213
     29 C          62.3991   80.0453   13.0054 C.3     1  UNL1        0.0213
@<TRIPOS>BOND
     1     1     2    1
     2     2     3   ar
     3     3     4    1
     4     3     5   ar
     5     5     6   ar
     6     6    23    1
     7    23    24    2
     8    23    25   am
     9    25    27    1
    10    27    28    1
    11    28    29    1
    12     6     7   ar
    13     7     8   ar
    14     8     9    1
    15     9    10   ar
    16    10    11   ar
    17    11    12   ar
    18    12    15    1
    19    15    16    2
    20    15    17   am
    21    17    19    1
    22    19    20    1
    23    20    21    1
    24    21    22    1
    25    12    13   ar
    26    13    14   ar
    27     8     2   ar
    28    14     9   ar
    29    29    27    1
    30    22    20    1
    31    25    26    1
    32    17    18    1
@<TRIPOS>MOLECULE
*****
 29 32 0 0 0
SMALL
GASTEIGER

@<TRIPOS>ATOM
      1 C          63.0977   84.5625    8.0413 C.3     1  UNL1        0.0334
      2 C          63.0167   84.6550    9.5363 C.ar    1  UNL1        0.0071
      3 C          63.7969   83.7002   10.3903 C.ar    1  UNL1        0.1363
      4 F          64.6583   82.6526    9.7493 F       1  UNL1       -0.2045
      5 C          63.7159   83.7927   11.8852 C.ar    1  UNL1        0.0338
      6 C          62.8545   84.8402   12.5262 C.ar    1  UNL1        0.0556
      7 C          62.0743   85.7951   11.6722 C.ar    1  UNL1        0.0058
      8 C          62.1553   85.7025   10.1773 C.ar    1  UNL1        0.0160
      9 C          61.3750   86.6575    9.3233 C.ar    1  UNL1        0.0811
     10 C          61.5343   88.1367    9.5145 C.ar    1  UNL1        0.0193
     11 C          60.7540   89.0916    8.6606 C.ar    1  UNL1        0.0076
     12 C          59.8144   88.5674    7.6154 C.ar    1  UNL1        0.0725
     13 C          59.6552   87.0882    7.4241 C.ar    1  UNL1        0.1033
     14 N          60.4355   86.1332    8.2781 N.ar    1  UNL1       -0.2437
     15 C          59.0342   89.5223    6.7615 C.2     1  UNL1        0.2474
     16 O          57.5373   89.4371    6.7166 O.2     1  UNL1       -0.2701
     17 N          59.7508   90.5625    5.9524 N.am    1  UNL1       -0.3008
     18 H          60.7332   90.6184    5.9819 H       1  UNL1        0.1497
     19 C          58.9705   91.5175    5.0985 C.3     1  UNL1        0.0896
     20 C          59.6095   92.1389    3.8921 C.3     1  UNL1        0.0196
     21 C          60.8378   92.6011    3.1656 C.3     1  UNL1        0.0017
     22 C          59.4881   92.7529    2.5290 C.3     1  UNL1        0.0017
     23 C          62.7735   84.9328   14.0211 C.2     1  UNL1        0.2459
     24 O          62.1300   83.8291   14.8071 O.2     1  UNL1       -0.2701
     25 N          63.3359   86.1290   14.7301 N.am    1  UNL1       -0.3025
     26 H          63.7583   86.8534   14.2142 H       1  UNL1        0.1497
     27 C          63.2549   86.2216   16.2250 C.3     1  UNL1        0.0720
     28 C          63.5151   85.6311   17.5791 C.3     1  UNL1        0.0213
     29 C          62.8543   86.9724   17.4602 C.3     1  UNL1        0.0213
@<TRIPOS>BOND
     1     1     2    1
     2     2     3   ar
     3     3     4    1
     4     3     5   ar
     5     5     6   ar
     6     6    23    1
     7    23    24    2
     8    23    25   am
     9    25    27    1
    10    27    28    1
    11    28    29    1
    12     6     7   ar
    13     7     8   ar
    14     8     9    1
    15     9    10   ar
    16    10    11   ar
    17    11    12   ar
    18    12    15    1
    19    15    16    2
    20    15    17   am
    21    17    19    1
    22    19    20    1
    23    20    21    1
    24    21    22    1
    25    12    13   ar
    26    13    14   ar
    27     8     2   ar
    28    14     9   ar
    29    29    27    1
    30    22    20    1
    31    25    26    1
    32    17    18    1
