@<TRIPOS>MOLECULE
*****
 41 46 0 0 0
SMALL
GASTEIGER

@<TRIPOS>ATOM
      1 N          63.1929   84.7271   13.9364 N.3     1  UNL1       -0.1543
      2 C          64.1271   85.1208   15.0419 C.3     1  UNL1        0.1002
      3 C          64.6641   86.5198   15.1074 C.3     1  UNL1        0.0417
      4 C          64.2667   87.5251   14.0675 C.2     1  UNL1       -0.0333
      5 C          64.8037   88.9243   14.1331 C.2     1  UNL1        0.0109
      6 C          64.4063   89.9296   13.0932 C.ar    1  UNL1        0.0797
      7 C          63.4720   89.5358   11.9877 C.ar    1  UNL1        0.0171
      8 C          63.2599   90.7344   11.1111 C.ar    1  UNL1        0.1177
      9 N          64.0632   91.8689   11.6748 N.ar    1  UNL1       -0.1639
     10 N          64.7717   91.3715   12.8998 N.ar    1  UNL1       -0.2300
     11 C          62.9351   88.1368   11.9222 C.3     1  UNL1        0.0420
     12 C          63.3324   87.1314   12.9621 C.3     1  UNL1        0.0927
     13 C          62.7955   85.7324   12.8965 C.3     1  UNL1        0.1071
     14 C          65.6852   92.1749   13.7773 C.ar    1  UNL1        0.0829
     15 C          66.2887   93.4489   13.2647 C.ar    1  UNL1        0.0215
     16 C          67.2022   94.2522   14.1423 C.ar    1  UNL1        0.0312
     17 C          67.5122   93.7816   15.5325 C.ar    1  UNL1        0.1402
     18 F          68.4257   94.5850   16.4100 F       1  UNL1       -0.2042
     19 C          66.9086   92.5076   16.0450 C.ar    1  UNL1        0.0312
     20 C          65.9951   91.7043   15.1674 C.ar    1  UNL1        0.0215
     21 S          62.6559   83.3280   13.8709 S.O2    1  UNL1        0.0664
     22 O          63.6422   83.0001   12.7894 O.2     1  UNL1       -0.1527
     23 O          61.6695   83.6558   14.9523 O.2     1  UNL1       -0.1527
     24 C          59.4534   79.1525   14.3070 C.3     1  UNL1        0.1538
     25 N          60.6469   80.0097   14.0057 N.ar    1  UNL1       -0.2459
     26 C          60.7585   81.4847   14.2544 C.ar    1  UNL1        0.1166
     27 C          62.1189   81.9289   13.8052 C.ar    1  UNL1        0.1616
     28 C          62.8482   80.7285   13.2789 C.ar    1  UNL1        0.1415
     29 N          61.9385   79.5423   13.4028 N.ar    1  UNL1       -0.1661
     30 C          62.3981   86.7377   11.8566 C.2     1  UNL1        0.1948
     31 O          62.4358   85.3439   11.3035 O.2     1  UNL1       -0.2894
     32 C          61.4261   87.7378   11.3043 C.ar    1  UNL1        0.1162
     33 C          61.1141   87.7491    9.8371 C.ar    1  UNL1        0.0259
     34 C          60.1421   88.7492    9.2847 C.ar    1  UNL1        0.0745
     35 C          59.4821   89.7379   10.1996 C.ar    1  UNL1        0.0245
     36 C          59.7941   89.7266   11.6667 C.ar    1  UNL1        0.0989
     37 N          60.7662   88.7265   12.2190 N.ar    1  UNL1       -0.2410
     38 C          59.8301   88.7605    7.8176 C.3     1  UNL1        0.4187
     39 F          59.5180   88.7719    6.3504 F       1  UNL1       -0.1659
     40 F          60.1778   87.3039    7.7324 F       1  UNL1       -0.1659
     41 F          59.4823   90.2171    7.9029 F       1  UNL1       -0.1659
@<TRIPOS>BOND
     1    24    25    1
     2    25    26   ar
     3    26    27   ar
     4    27    21    1
     5    21    22    2
     6    21    23    2
     7    21     1    1
     8     1     2    1
     9     2     3    1
    10     3     4    1
    11     4     5    2
    12     5     6    1
    13     6     7   ar
    14     7     8   ar
    15     8     9   ar
    16     9    10   ar
    17    10    14    1
    18    14    15   ar
    19    15    16   ar
    20    16    17   ar
    21    17    18    1
    22    17    19   ar
    23    19    20   ar
    24     7    11    1
    25    11    12    1
    26    12    30    1
    27    30    31    2
    28    30    32    1
    29    32    33   ar
    30    33    34   ar
    31    34    38    1
    32    38    39    1
    33    38    40    1
    34    38    41    1
    35    34    35   ar
    36    35    36   ar
    37    36    37   ar
    38    12    13    1
    39    27    28   ar
    40    28    29   ar
    41    29    25   ar
    42    13     1    1
    43    12     4    1
    44    37    32   ar
    45    10     6   ar
    46    20    14   ar
@<TRIPOS>MOLECULE
*****
 41 46 0 0 0
SMALL
GASTEIGER

@<TRIPOS>ATOM
      1 N          59.9851   88.5302    7.5674 N.3     1  UNL1       -0.1543
      2 C          59.5647   87.1012    7.3909 C.3     1  UNL1        0.1002
      3 C          60.0323   86.0567    8.3604 C.3     1  UNL1        0.0417
      4 C          60.9204   86.4410    9.5065 C.2     1  UNL1       -0.0333
      5 C          61.3880   85.3963   10.4761 C.2     1  UNL1        0.0109
      6 C          62.2761   85.7807   11.6222 C.ar    1  UNL1        0.0797
      7 C          62.6966   87.2098   11.7987 C.ar    1  UNL1        0.0171
      8 C          63.5710   87.2888   13.0149 C.ar    1  UNL1        0.1177
      9 N          63.6909   85.9086   13.5901 N.ar    1  UNL1       -0.1639
     10 N          62.8906   84.9766   12.7293 N.ar    1  UNL1       -0.2300
     11 C          62.2290   88.2544   10.8291 C.3     1  UNL1        0.0420
     12 C          61.3409   87.8700    9.6830 C.3     1  UNL1        0.0927
     13 C          60.8732   88.9146    8.7135 C.3     1  UNL1        0.1071
     14 C          62.7326   83.4998   12.9389 C.ar    1  UNL1        0.0829
     15 C          63.1498   82.5408   11.8636 C.ar    1  UNL1        0.0215
     16 C          62.9917   81.0639   12.0732 C.ar    1  UNL1        0.0312
     17 C          62.4165   80.5460   13.3581 C.ar    1  UNL1        0.1402
     18 F          62.2584   79.0692   13.5677 F       1  UNL1       -0.2042
     19 C          61.9993   81.5051   14.4334 C.ar    1  UNL1        0.0312
     20 C          62.1574   82.9819   14.2238 C.ar    1  UNL1        0.0215
     21 S          59.5175   89.5749    6.5978 S.O2    1  UNL1        0.0664
     22 O          60.9389   89.8421    6.2002 O.2     1  UNL1       -0.1527
     23 O          58.0961   89.3077    6.9954 O.2     1  UNL1       -0.1527
     24 C          59.4854   93.2762    2.8321 C.3     1  UNL1        0.1538
     25 N          59.0352   92.3208    3.8973 N.ar    1  UNL1       -0.2459
     26 C          59.9154   91.3853    4.6718 C.ar    1  UNL1        0.1166
     27 C          59.0499   90.6195    5.6282 C.ar    1  UNL1        0.1616
     28 C          57.6348   91.0819    5.4448 C.ar    1  UNL1        0.1415
     29 N          57.6257   92.1333    4.3751 N.ar    1  UNL1       -0.1661
     30 C          61.7613   89.2990    9.8596 C.2     1  UNL1        0.1948
     31 O          61.6895   90.2504    8.7021 O.2     1  UNL1       -0.2894
     32 C          62.2537   89.7766   11.1935 C.ar    1  UNL1        0.1162
     33 C          63.5479   90.5288   11.2899 C.ar    1  UNL1        0.0259
     34 C          64.0402   91.0064   12.6239 C.ar    1  UNL1        0.0745
     35 C          63.2384   90.7318   13.8615 C.ar    1  UNL1        0.0245
     36 C          61.9442   89.9796   13.7651 C.ar    1  UNL1        0.0989
     37 N          61.4519   89.5020   12.4311 N.ar    1  UNL1       -0.2410
     38 C          65.3344   91.7586   12.7202 C.3     1  UNL1        0.4187
     39 F          66.6286   92.5108   12.8167 F       1  UNL1       -0.1659
     40 F          64.9814   92.5249   11.4800 F       1  UNL1       -0.1659
     41 F          65.6874   90.9923   13.9604 F       1  UNL1       -0.1659
@<TRIPOS>BOND
     1    24    25    1
     2    25    26   ar
     3    26    27   ar
     4    27    21    1
     5    21    22    2
     6    21    23    2
     7    21     1    1
     8     1     2    1
     9     2     3    1
    10     3     4    1
    11     4     5    2
    12     5     6    1
    13     6     7   ar
    14     7     8   ar
    15     8     9   ar
    16     9    10   ar
    17    10    14    1
    18    14    15   ar
    19    15    16   ar
    20    16    17   ar
    21    17    18    1
    22    17    19   ar
    23    19    20   ar
    24     7    11    1
    25    11    12    1
    26    12    30    1
    27    30    31    2
    28    30    32    1
    29    32    33   ar
    30    33    34   ar
    31    34    38    1
    32    38    39    1
    33    38    40    1
    34    38    41    1
    35    34    35   ar
    36    35    36   ar
    37    36    37   ar
    38    12    13    1
    39    27    28   ar
    40    28    29   ar
    41    29    25   ar
    42    13     1    1
    43    12     4    1
    44    37    32   ar
    45    10     6   ar
    46    20    14   ar
@<TRIPOS>MOLECULE
*****
 41 46 0 0 0
SMALL
GASTEIGER

@<TRIPOS>ATOM
      1 N          62.8340   84.5343   13.9651 N.3     1  UNL1       -0.1543
      2 C          63.7772   84.9612   15.0504 C.3     1  UNL1        0.1002
      3 C          64.3229   86.3584   15.0631 C.3     1  UNL1        0.0417
      4 C          63.9253   87.3286   13.9905 C.2     1  UNL1       -0.0333
      5 C          64.4711   88.7258   14.0032 C.2     1  UNL1        0.0109
      6 C          64.0735   89.6961   12.9306 C.ar    1  UNL1        0.0797
      7 C          63.1303   89.2691   11.8452 C.ar    1  UNL1        0.0171
      8 C          62.9202   90.4371   10.9278 C.ar    1  UNL1        0.1177
      9 N          63.7335   91.5859   11.4462 N.ar    1  UNL1       -0.1639
     10 N          64.4463   91.1279   12.6840 N.ar    1  UNL1       -0.2300
     11 C          62.5846   87.8720   11.8325 C.3     1  UNL1        0.0420
     12 C          62.9821   86.9017   12.9051 C.3     1  UNL1        0.0927
     13 C          62.4365   85.5046   12.8924 C.3     1  UNL1        0.1071
     14 C          65.3698   91.9563   13.5272 C.ar    1  UNL1        0.0829
     15 C          66.0353   93.1670   12.9430 C.ar    1  UNL1        0.0215
     16 C          66.9589   93.9953   13.7863 C.ar    1  UNL1        0.0312
     17 C          67.2169   93.6129   15.2136 C.ar    1  UNL1        0.1402
     18 F          68.1404   94.4413   16.0568 F       1  UNL1       -0.2042
     19 C          66.5513   92.4021   15.7977 C.ar    1  UNL1        0.0312
     20 C          65.6278   91.5739   14.9545 C.ar    1  UNL1        0.0215
     21 S          62.2883   83.1371   13.9523 S.O2    1  UNL1        0.0664
     22 O          61.7013   83.3540   15.3155 O.2     1  UNL1       -0.1527
     23 O          62.8752   82.9203   12.5891 O.2     1  UNL1       -0.1527
     24 C          59.0401   79.0095   14.4931 C.3     1  UNL1        0.1538
     25 N          60.2495   79.8427   14.1882 N.ar    1  UNL1       -0.2459
     26 C          60.3648   81.3277   14.3660 C.ar    1  UNL1        0.1166
     27 C          61.7426   81.7400   13.9396 C.ar    1  UNL1        0.1616
     28 C          62.4788   80.5099   13.4983 C.ar    1  UNL1        0.1415
     29 N          61.5561   79.3373   13.6519 N.ar    1  UNL1       -0.1661
     30 C          62.0389   86.4748   11.8198 C.2     1  UNL1        0.1948
     31 O          60.5908   86.8597   11.8903 O.2     1  UNL1       -0.2894
     32 C          62.5437   85.6631   10.6638 C.ar    1  UNL1        0.1162
     33 C          61.8857   85.7803    9.3209 C.ar    1  UNL1        0.0259
     34 C          62.3905   84.9686    8.1649 C.ar    1  UNL1        0.0745
     35 C          63.5534   84.0396    8.3519 C.ar    1  UNL1        0.0245
     36 C          64.2114   83.9224    9.6947 C.ar    1  UNL1        0.0989
     37 N          63.7065   84.7342   10.8507 N.ar    1  UNL1       -0.2410
     38 C          61.7325   85.0857    6.8221 C.3     1  UNL1        0.4187
     39 F          61.0745   85.2029    5.4792 F       1  UNL1       -0.1659
     40 F          60.8530   86.1808    7.3486 F       1  UNL1       -0.1659
     41 F          62.6120   83.9907    6.2956 F       1  UNL1       -0.1659
@<TRIPOS>BOND
     1    24    25    1
     2    25    26   ar
     3    26    27   ar
     4    27    21    1
     5    21    22    2
     6    21    23    2
     7    21     1    1
     8     1     2    1
     9     2     3    1
    10     3     4    1
    11     4     5    2
    12     5     6    1
    13     6     7   ar
    14     7     8   ar
    15     8     9   ar
    16     9    10   ar
    17    10    14    1
    18    14    15   ar
    19    15    16   ar
    20    16    17   ar
    21    17    18    1
    22    17    19   ar
    23    19    20   ar
    24     7    11    1
    25    11    12    1
    26    12    30    1
    27    30    31    2
    28    30    32    1
    29    32    33   ar
    30    33    34   ar
    31    34    38    1
    32    38    39    1
    33    38    40    1
    34    38    41    1
    35    34    35   ar
    36    35    36   ar
    37    36    37   ar
    38    12    13    1
    39    27    28   ar
    40    28    29   ar
    41    29    25   ar
    42    13     1    1
    43    12     4    1
    44    37    32   ar
    45    10     6   ar
    46    20    14   ar
@<TRIPOS>MOLECULE
*****
 41 46 0 0 0
SMALL
GASTEIGER

@<TRIPOS>ATOM
      1 N          63.1696   84.7313   14.0819 N.3     1  UNL1       -0.1543
      2 C          64.1918   85.1197   15.1086 C.3     1  UNL1        0.1002
      3 C          64.7275   86.5203   15.1411 C.3     1  UNL1        0.0417
      4 C          64.2411   87.5326   14.1468 C.2     1  UNL1       -0.0333
      5 C          64.7769   88.9333   14.1792 C.2     1  UNL1        0.0109
      6 C          64.2904   89.9456   13.1849 C.ar    1  UNL1        0.0797
      7 C          63.2682   89.5572   12.1581 C.ar    1  UNL1        0.0171
      8 C          62.9794   90.7621   11.3127 C.ar    1  UNL1        0.1177
      9 N          63.8232   91.8952   11.8169 N.ar    1  UNL1       -0.1639
     10 N          64.6334   91.3906   12.9740 N.ar    1  UNL1       -0.2300
     11 C          62.7325   88.1565   12.1257 C.3     1  UNL1        0.0420
     12 C          63.2189   87.1442   13.1200 C.3     1  UNL1        0.0927
     13 C          62.6832   85.7436   13.0875 C.3     1  UNL1        0.1071
     14 C          65.6143   92.1904   13.7790 C.ar    1  UNL1        0.0829
     15 C          66.1717   93.4689   13.2269 C.ar    1  UNL1        0.0215
     16 C          67.1527   94.2688   14.0320 C.ar    1  UNL1        0.0312
     17 C          67.5763   93.7901   15.3890 C.ar    1  UNL1        0.1402
     18 F          68.5572   94.5900   16.1939 F       1  UNL1       -0.2042
     19 C          67.0188   92.5116   15.9410 C.ar    1  UNL1        0.0312
     20 C          66.0379   91.7118   15.1360 C.ar    1  UNL1        0.0215
     21 S          62.6338   83.3306   14.0494 S.O2    1  UNL1        0.0664
     22 O          61.3312   83.8158   14.6129 O.2     1  UNL1       -0.1527
     23 O          63.9365   82.8453   13.4859 O.2     1  UNL1       -0.1527
     24 C          59.3523   79.2020   14.3076 C.3     1  UNL1        0.1538
     25 N          60.5896   80.0322   14.1356 N.ar    1  UNL1       -0.2459
     26 C          60.6766   81.5236   14.2707 C.ar    1  UNL1        0.1166
     27 C          62.0980   81.9299   14.0169 C.ar    1  UNL1        0.1616
     28 C          62.8896   80.6897   13.7250 C.ar    1  UNL1        0.1415
     29 N          61.9574   79.5169   13.7983 N.ar    1  UNL1       -0.1661
     30 C          62.1968   86.7558   12.0932 C.2     1  UNL1        0.1948
     31 O          60.7738   87.2061   12.2438 O.2     1  UNL1       -0.2894
     32 C          62.5974   85.9172   10.9159 C.ar    1  UNL1        0.1162
     33 C          62.9445   84.4706   11.1088 C.ar    1  UNL1        0.0259
     34 C          63.3451   83.6320    9.9315 C.ar    1  UNL1        0.0745
     35 C          63.3988   84.2399    8.5612 C.ar    1  UNL1        0.0245
     36 C          63.0518   85.6864    8.3683 C.ar    1  UNL1        0.0989
     37 N          62.6511   86.5250    9.5456 N.ar    1  UNL1       -0.2410
     38 C          63.6921   82.1855   10.1244 C.3     1  UNL1        0.4187
     39 F          64.0392   80.7390   10.3173 F       1  UNL1       -0.1659
     40 F          62.3720   81.9589   10.7994 F       1  UNL1       -0.1659
     41 F          65.0123   82.4122    9.4494 F       1  UNL1       -0.1659
@<TRIPOS>BOND
     1    24    25    1
     2    25    26   ar
     3    26    27   ar
     4    27    21    1
     5    21    22    2
     6    21    23    2
     7    21     1    1
     8     1     2    1
     9     2     3    1
    10     3     4    1
    11     4     5    2
    12     5     6    1
    13     6     7   ar
    14     7     8   ar
    15     8     9   ar
    16     9    10   ar
    17    10    14    1
    18    14    15   ar
    19    15    16   ar
    20    16    17   ar
    21    17    18    1
    22    17    19   ar
    23    19    20   ar
    24     7    11    1
    25    11    12    1
    26    12    30    1
    27    30    31    2
    28    30    32    1
    29    32    33   ar
    30    33    34   ar
    31    34    38    1
    32    38    39    1
    33    38    40    1
    34    38    41    1
    35    34    35   ar
    36    35    36   ar
    37    36    37   ar
    38    12    13    1
    39    27    28   ar
    40    28    29   ar
    41    29    25   ar
    42    13     1    1
    43    12     4    1
    44    37    32   ar
    45    10     6   ar
    46    20    14   ar
