@<TRIPOS>MOLECULE
*****
 30 34 0 0 0
SMALL
GASTEIGER

@<TRIPOS>ATOM
      1 C          61.4794   89.4614   12.1418 C.ar    1  UNL1        0.2359
      2 N          61.9486   88.0690   11.8401 N.ar    1  UNL1       -0.1935
      3 C          61.3255   87.6403   10.5447 C.ar    1  UNL1        0.1667
      4 C          61.4256   86.3690    9.7551 C.ar    1  UNL1        0.0357
      5 C          60.6714   86.2251    8.4664 C.ar    1  UNL1        0.0046
      6 C          59.8171   87.3526    7.9675 C.ar    1  UNL1        0.0208
      7 C          59.7170   88.6240    8.7572 C.ar    1  UNL1        0.1022
      8 N          60.4712   88.7679   10.0458 N.ar    1  UNL1       -0.2081
      9 N          60.5663   89.8933   11.0329 N.ar    1  UNL1       -0.1284
     10 C          62.2798   85.2415   10.2540 C.ar    1  UNL1       -0.0009
     11 C          62.2230   84.8397   11.6980 C.ar    1  UNL1        0.0021
     12 C          63.0773   83.7121   12.1969 C.ar    1  UNL1        0.0296
     13 C          63.9884   82.9865   11.2518 C.ar    1  UNL1        0.1398
     14 F          64.8427   81.8590   11.7507 F       1  UNL1       -0.2042
     15 C          64.0452   83.3883    9.8077 C.ar    1  UNL1        0.0254
     16 C          63.1910   84.5158    9.3088 C.ar    1  UNL1       -0.0195
     17 C          63.2478   84.9176    7.8648 C.3     1  UNL1        0.0311
     18 N          61.8570   90.2785   13.3417 N.pl3   1  UNL1       -0.3031
     19 H          61.1853   90.4764   14.0336 H       1  UNL1        0.1496
     20 N          67.4311   92.4131   13.6205 N.ar    1  UNL1       -0.2552
     21 N          67.5799   92.8667   12.1985 N.ar    1  UNL1       -0.1683
     22 C          66.3009   92.5592   11.4777 C.ar    1  UNL1        0.1170
     23 C          65.3616   91.9155   12.4542 C.ar    1  UNL1        0.0135
     24 C          66.0602   91.8252   13.7785 C.ar    1  UNL1        0.0532
     25 C          65.3577   91.2193   14.9572 C.3     1  UNL1        0.0469
     26 C          63.9567   90.7038   14.8116 C.3     1  UNL1        0.0262
     27 C          63.2581   90.7941   13.4872 C.3     1  UNL1        0.0766
     28 C          63.9606   91.4000   12.3085 C.3     1  UNL1        0.0487
     29 C          68.2833   93.5028   15.8197 C.3     1  UNL1        0.0284
     30 C          68.4708   92.5272   14.6957 C.3     1  UNL1        0.1271
@<TRIPOS>BOND
     1    29    30    1
     2    30    20    1
     3    20    21   ar
     4    21    22   ar
     5    22    23   ar
     6    23    24   ar
     7    24    25    1
     8    25    26    1
     9    26    27    1
    10    27    18    1
    11    18     1    1
    12     1     2   ar
    13     2     3   ar
    14     3     4   ar
    15     4    10    1
    16    10    11   ar
    17    11    12   ar
    18    12    13   ar
    19    13    14    1
    20    13    15   ar
    21    15    16   ar
    22    16    17    1
    23     4     5   ar
    24     5     6   ar
    25     6     7   ar
    26     7     8   ar
    27     8     9   ar
    28    27    28    1
    29    24    20   ar
    30     9     1   ar
    31    28    23    1
    32     8     3   ar
    33    16    10   ar
    34    18    19    1
@<TRIPOS>MOLECULE
*****
 30 34 0 0 0
SMALL
GASTEIGER

@<TRIPOS>ATOM
      1 C          62.8638   91.0085   11.9500 C.ar    1  UNL1        0.2359
      2 N          63.8774   91.9699   11.4037 N.ar    1  UNL1       -0.1935
      3 C          65.0452   91.9968   12.3446 C.ar    1  UNL1        0.1667
      4 C          66.3365   92.7595   12.3201 C.ar    1  UNL1        0.0357
      5 C          67.3362   92.5775   13.4236 C.ar    1  UNL1        0.0046
      6 C          67.0445   91.6327   14.5515 C.ar    1  UNL1        0.0208
      7 C          65.7530   90.8700   14.5760 C.ar    1  UNL1        0.1022
      8 N          64.7534   91.0520   13.4726 N.ar    1  UNL1       -0.2081
      9 N          63.4053   90.4412   13.2287 N.ar    1  UNL1       -0.1284
     10 C          66.6283   93.7043   11.1922 C.ar    1  UNL1       -0.0009
     11 C          66.0894   95.1037   11.2276 C.ar    1  UNL1        0.0021
     12 C          66.3812   96.0485   10.0995 C.ar    1  UNL1        0.0296
     13 C          67.2118   95.5938    8.9362 C.ar    1  UNL1        0.1398
     14 F          67.5035   96.5386    7.8083 F       1  UNL1       -0.2042
     15 C          67.7506   94.1944    8.9008 C.ar    1  UNL1        0.0254
     16 C          67.4589   93.2496   10.0287 C.ar    1  UNL1       -0.0195
     17 C          67.9977   91.8502    9.9934 C.3     1  UNL1        0.0311
     18 N          61.5412   90.6733   11.3272 N.pl3   1  UNL1       -0.3031
     19 H          60.7575   91.2439   11.4989 H       1  UNL1        0.1496
     20 N          60.7494   85.9806    7.7137 N.ar    1  UNL1       -0.2552
     21 N          59.3968   86.3306    7.1678 N.ar    1  UNL1       -0.1683
     22 C          58.9667   87.6257    7.7904 C.ar    1  UNL1        0.1170
     23 C          60.0534   88.0762    8.7211 C.ar    1  UNL1        0.0135
     24 C          61.1552   87.0594    8.6737 C.ar    1  UNL1        0.0532
     25 C          62.3857   87.2473    9.5108 C.3     1  UNL1        0.0469
     26 C          62.5143   88.4519   10.3952 C.3     1  UNL1        0.0262
     27 C          61.4125   89.4686   10.4426 C.3     1  UNL1        0.0766
     28 C          60.1821   89.2808    9.6055 C.3     1  UNL1        0.0487
     29 C          61.8711   84.4651    5.9262 C.3     1  UNL1        0.0284
     30 C          61.5548   84.7652    7.3615 C.3     1  UNL1        0.1271
@<TRIPOS>BOND
     1    29    30    1
     2    30    20    1
     3    20    21   ar
     4    21    22   ar
     5    22    23   ar
     6    23    24   ar
     7    24    25    1
     8    25    26    1
     9    26    27    1
    10    27    18    1
    11    18     1    1
    12     1     2   ar
    13     2     3   ar
    14     3     4   ar
    15     4    10    1
    16    10    11   ar
    17    11    12   ar
    18    12    13   ar
    19    13    14    1
    20    13    15   ar
    21    15    16   ar
    22    16    17    1
    23     4     5   ar
    24     5     6   ar
    25     6     7   ar
    26     7     8   ar
    27     8     9   ar
    28    27    28    1
    29    24    20   ar
    30     9     1   ar
    31    28    23    1
    32     8     3   ar
    33    16    10   ar
    34    18    19    1
@<TRIPOS>MOLECULE
*****
 30 34 0 0 0
SMALL
GASTEIGER

@<TRIPOS>ATOM
      1 C          64.0585   87.8702   14.1935 C.ar    1  UNL1        0.2359
      2 N          63.2798   87.7772   12.9148 N.ar    1  UNL1       -0.1935
      3 C          63.3636   89.1057   12.2234 C.ar    1  UNL1        0.1667
      4 C          62.7910   89.6012   10.9286 C.ar    1  UNL1        0.0357
      5 C          63.0488   91.0108   10.4852 C.ar    1  UNL1        0.0046
      6 C          63.8793   91.9248   11.3365 C.ar    1  UNL1        0.0208
      7 C          64.4520   91.4293   12.6314 C.ar    1  UNL1        0.1022
      8 N          64.1941   90.0197   13.0749 N.ar    1  UNL1       -0.2081
      9 N          64.6236   89.2561   14.2924 N.ar    1  UNL1       -0.1284
     10 C          61.9606   88.6872   10.0773 C.ar    1  UNL1       -0.0009
     11 C          62.5643   87.4372    9.5089 C.ar    1  UNL1        0.0021
     12 C          61.7338   86.5232    8.6575 C.ar    1  UNL1        0.0296
     13 C          60.2996   86.8591    8.3746 C.ar    1  UNL1        0.1398
     14 F          59.4691   85.9450    7.5232 F       1  UNL1       -0.2042
     15 C          59.6958   88.1090    8.9430 C.ar    1  UNL1        0.0254
     16 C          60.5262   89.0230    9.7943 C.ar    1  UNL1       -0.0195
     17 C          59.9224   90.2730   10.3628 C.3     1  UNL1        0.0311
     18 N          64.2403   86.7703   15.1971 N.pl3   1  UNL1       -0.3031
     19 H          64.6543   86.9632   16.0692 H       1  UNL1        0.1496
     20 N          62.6590   81.2143   13.6689 N.ar    1  UNL1       -0.2552
     21 N          63.5933   81.0142   12.5127 N.ar    1  UNL1       -0.1683
     22 C          64.4049   82.2653   12.3508 C.ar    1  UNL1        0.1170
     23 C          63.9721   83.2385   13.4069 C.ar    1  UNL1        0.0135
     24 C          62.8930   82.5890   14.2216 C.ar    1  UNL1        0.0532
     25 C          62.2631   83.3332   15.3614 C.3     1  UNL1        0.0469
     26 C          62.7121   84.7269   15.6866 C.3     1  UNL1        0.0262
     27 C          63.7912   85.3765   14.8719 C.3     1  UNL1        0.0766
     28 C          64.4212   84.6323   13.7321 C.3     1  UNL1        0.0487
     29 C          60.1986   80.5292   14.1459 C.3     1  UNL1        0.0284
     30 C          61.6650   80.2151   14.1824 C.3     1  UNL1        0.1271
@<TRIPOS>BOND
     1    29    30    1
     2    30    20    1
     3    20    21   ar
     4    21    22   ar
     5    22    23   ar
     6    23    24   ar
     7    24    25    1
     8    25    26    1
     9    26    27    1
    10    27    18    1
    11    18     1    1
    12     1     2   ar
    13     2     3   ar
    14     3     4   ar
    15     4    10    1
    16    10    11   ar
    17    11    12   ar
    18    12    13   ar
    19    13    14    1
    20    13    15   ar
    21    15    16   ar
    22    16    17    1
    23     4     5   ar
    24     5     6   ar
    25     6     7   ar
    26     7     8   ar
    27     8     9   ar
    28    27    28    1
    29    24    20   ar
    30     9     1   ar
    31    28    23    1
    32     8     3   ar
    33    16    10   ar
    34    18    19    1
@<TRIPOS>MOLECULE
*****
 30 34 0 0 0
SMALL
GASTEIGER

@<TRIPOS>ATOM
      1 C          63.8730   87.2513   14.9142 C.ar    1  UNL1        0.2359
      2 N          63.4164   86.8210   13.5516 N.ar    1  UNL1       -0.1935
      3 C          63.4823   85.3237   13.4921 C.ar    1  UNL1        0.1667
      4 C          63.1537   84.3471   12.4020 C.ar    1  UNL1        0.0357
      5 C          63.3223   82.8754   12.6376 C.ar    1  UNL1        0.0046
      6 C          63.8195   82.3802   13.9634 C.ar    1  UNL1        0.0208
      7 C          64.1481   83.3568   15.0535 C.ar    1  UNL1        0.1022
      8 N          63.9794   84.8285   14.8179 N.ar    1  UNL1       -0.2081
      9 N          64.2209   86.0199   15.6967 N.ar    1  UNL1       -0.1284
     10 C          62.6566   84.8423   11.0763 C.ar    1  UNL1       -0.0009
     11 C          61.5319   85.8332   11.0196 C.ar    1  UNL1        0.0021
     12 C          61.0347   86.3284    9.6938 C.ar    1  UNL1        0.0296
     13 C          61.6622   85.8326    8.4247 C.ar    1  UNL1        0.1398
     14 F          61.1651   86.3278    7.0990 F       1  UNL1       -0.2042
     15 C          62.7869   84.8417    8.4815 C.ar    1  UNL1        0.0254
     16 C          63.2841   84.3466    9.8072 C.ar    1  UNL1       -0.0195
     17 C          64.4087   83.3557    9.8639 C.3     1  UNL1        0.0311
     18 N          63.9653   88.6648   15.4075 N.pl3   1  UNL1       -0.3031
     19 H          63.7407   88.8755   16.3426 H       1  UNL1        0.1496
     20 N          65.9233   93.0879   11.8992 N.ar    1  UNL1       -0.2552
     21 N          67.0657   93.5689   12.7439 N.ar    1  UNL1       -0.1683
     22 C          67.1173   92.7208   13.9801 C.ar    1  UNL1        0.1170
     23 C          66.0069   91.7156   13.8994 C.ar    1  UNL1        0.0135
     24 C          65.2689   91.9425   12.6133 C.ar    1  UNL1        0.0532
     25 C          64.0964   91.0768   12.2586 C.3     1  UNL1        0.0469
     26 C          63.6619   89.9843   13.1900 C.3     1  UNL1        0.0262
     27 C          64.3999   89.7574   14.4761 C.3     1  UNL1        0.0766
     28 C          65.5723   90.6231   14.8308 C.3     1  UNL1        0.0487
     29 C          66.5429   94.1930    9.6310 C.3     1  UNL1        0.0284
     30 C          65.5081   93.6530   10.5732 C.3     1  UNL1        0.1271
@<TRIPOS>BOND
     1    29    30    1
     2    30    20    1
     3    20    21   ar
     4    21    22   ar
     5    22    23   ar
     6    23    24   ar
     7    24    25    1
     8    25    26    1
     9    26    27    1
    10    27    18    1
    11    18     1    1
    12     1     2   ar
    13     2     3   ar
    14     3     4   ar
    15     4    10    1
    16    10    11   ar
    17    11    12   ar
    18    12    13   ar
    19    13    14    1
    20    13    15   ar
    21    15    16   ar
    22    16    17    1
    23     4     5   ar
    24     5     6   ar
    25     6     7   ar
    26     7     8   ar
    27     8     9   ar
    28    27    28    1
    29    24    20   ar
    30     9     1   ar
    31    28    23    1
    32     8     3   ar
    33    16    10   ar
    34    18    19    1
@<TRIPOS>MOLECULE
*****
 30 34 0 0 0
SMALL
GASTEIGER

@<TRIPOS>ATOM
      1 C          63.5622   90.4076   12.2233 C.ar    1  UNL1        0.2359
      2 N          64.3275   91.5329   11.5923 N.ar    1  UNL1       -0.1935
      3 C          65.1802   92.1651   12.6521 C.ar    1  UNL1        0.1667
      4 C          66.1428   93.3148   12.6123 C.ar    1  UNL1        0.0357
      5 C          66.8673   93.7299   13.8584 C.ar    1  UNL1        0.0046
      6 C          66.6291   92.9953   15.1443 C.ar    1  UNL1        0.0208
      7 C          65.6665   91.8456   15.1842 C.ar    1  UNL1        0.1022
      8 N          64.9420   91.4305   13.9380 N.ar    1  UNL1       -0.2081
      9 N          63.9421   90.3443   13.6730 N.ar    1  UNL1       -0.1284
     10 C          66.3810   94.0493   11.3264 C.ar    1  UNL1       -0.0009
     11 C          65.7199   95.3741   11.0858 C.ar    1  UNL1        0.0021
     12 C          65.9581   96.1087    9.7998 C.ar    1  UNL1        0.0296
     13 C          66.8573   95.5185    8.7544 C.ar    1  UNL1        0.1398
     14 F          67.0955   96.2531    7.4685 F       1  UNL1       -0.2042
     15 C          67.5185   94.1937    8.9950 C.ar    1  UNL1        0.0254
     16 C          67.2803   93.4591   10.2809 C.ar    1  UNL1       -0.0195
     17 C          67.9415   92.1344   10.5214 C.3     1  UNL1        0.0311
     18 N          62.5882   89.5042   11.5268 N.pl3   1  UNL1       -0.3031
     19 H          61.8962   89.8857   10.9396 H       1  UNL1        0.1496
     20 N          63.0782   83.6415   12.5727 N.ar    1  UNL1       -0.2552
     21 N          63.9022   83.6948   13.8250 N.ar    1  UNL1       -0.1683
     22 C          64.1624   85.1364   14.1476 C.ar    1  UNL1        0.1170
     23 C          63.4992   85.9740   13.0947 C.ar    1  UNL1        0.0135
     24 C          62.8291   85.0501   12.1214 C.ar    1  UNL1        0.0532
     25 C          62.0788   85.6109   10.9499 C.3     1  UNL1        0.0469
     26 C          61.9985   87.0955   10.7517 C.3     1  UNL1        0.0262
     27 C          62.6686   88.0194   11.7251 C.3     1  UNL1        0.0766
     28 C          63.4189   87.4587   12.8966 C.3     1  UNL1        0.0487
     29 C          63.4271   81.7435   10.8331 C.3     1  UNL1        0.0284
     30 C          62.5891   82.3979   11.8913 C.3     1  UNL1        0.1271
@<TRIPOS>BOND
     1    29    30    1
     2    30    20    1
     3    20    21   ar
     4    21    22   ar
     5    22    23   ar
     6    23    24   ar
     7    24    25    1
     8    25    26    1
     9    26    27    1
    10    27    18    1
    11    18     1    1
    12     1     2   ar
    13     2     3   ar
    14     3     4   ar
    15     4    10    1
    16    10    11   ar
    17    11    12   ar
    18    12    13   ar
    19    13    14    1
    20    13    15   ar
    21    15    16   ar
    22    16    17    1
    23     4     5   ar
    24     5     6   ar
    25     6     7   ar
    26     7     8   ar
    27     8     9   ar
    28    27    28    1
    29    24    20   ar
    30     9     1   ar
    31    28    23    1
    32     8     3   ar
    33    16    10   ar
    34    18    19    1
@<TRIPOS>MOLECULE
*****
 30 34 0 0 0
SMALL
GASTEIGER

@<TRIPOS>ATOM
      1 C          61.2838   89.8003   10.9470 C.ar    1  UNL1        0.2359
      2 N          61.7646   88.3814   10.8728 N.ar    1  UNL1       -0.1935
      3 C          60.9777   87.6806    9.8052 C.ar    1  UNL1        0.1667
      4 C          61.0169   86.2722    9.2906 C.ar    1  UNL1        0.0357
      5 C          60.0890   85.8496    8.1905 C.ar    1  UNL1        0.0046
      6 C          59.1219   86.8353    7.6049 C.ar    1  UNL1        0.0208
      7 C          59.0826   88.2438    8.1195 C.ar    1  UNL1        0.1022
      8 N          60.0106   88.6664    9.2196 N.ar    1  UNL1       -0.2081
      9 N          60.1997   89.9765    9.9253 N.ar    1  UNL1       -0.1284
     10 C          61.9840   85.2864    9.8761 C.ar    1  UNL1       -0.0009
     11 C          61.9433   84.9767   11.3433 C.ar    1  UNL1        0.0021
     12 C          62.9105   83.9909   11.9288 C.ar    1  UNL1        0.0296
     13 C          63.9183   83.3148   11.0472 C.ar    1  UNL1        0.1398
     14 F          64.8854   82.3291   11.6328 F       1  UNL1       -0.2042
     15 C          63.9590   83.6245    9.5801 C.ar    1  UNL1        0.0254
     16 C          62.9919   84.6103    8.9946 C.ar    1  UNL1       -0.0195
     17 C          63.0326   84.9200    7.5275 C.3     1  UNL1        0.0311
     18 N          61.7969   90.8575   11.8793 N.pl3   1  UNL1       -0.3031
     19 H          61.2079   91.2273   12.5761 H       1  UNL1        0.1496
     20 N          67.4556   92.7649   11.6674 N.ar    1  UNL1       -0.2552
     21 N          67.8307   92.5463   13.1032 N.ar    1  UNL1       -0.1683
     22 C          66.6352   91.9847   13.8141 C.ar    1  UNL1        0.1170
     23 C          65.5213   91.8563   12.8178 C.ar    1  UNL1        0.0135
     24 C          66.0284   92.3385   11.4910 C.ar    1  UNL1        0.0532
     25 C          65.1249   92.3270   10.2936 C.3     1  UNL1        0.0469
     26 C          63.7145   91.8334   10.4231 C.3     1  UNL1        0.0262
     27 C          63.2074   91.3512   11.7499 C.3     1  UNL1        0.0766
     28 C          64.1108   91.3626   12.9472 C.3     1  UNL1        0.0487
     29 C          68.7181   92.4623    9.4168 C.3     1  UNL1        0.0284
     30 C          68.3507   93.3136   10.5960 C.3     1  UNL1        0.1271
@<TRIPOS>BOND
     1    29    30    1
     2    30    20    1
     3    20    21   ar
     4    21    22   ar
     5    22    23   ar
     6    23    24   ar
     7    24    25    1
     8    25    26    1
     9    26    27    1
    10    27    18    1
    11    18     1    1
    12     1     2   ar
    13     2     3   ar
    14     3     4   ar
    15     4    10    1
    16    10    11   ar
    17    11    12   ar
    18    12    13   ar
    19    13    14    1
    20    13    15   ar
    21    15    16   ar
    22    16    17    1
    23     4     5   ar
    24     5     6   ar
    25     6     7   ar
    26     7     8   ar
    27     8     9   ar
    28    27    28    1
    29    24    20   ar
    30     9     1   ar
    31    28    23    1
    32     8     3   ar
    33    16    10   ar
    34    18    19    1
@<TRIPOS>MOLECULE
*****
 30 34 0 0 0
SMALL
GASTEIGER

@<TRIPOS>ATOM
      1 C          63.9823   86.8218   14.0845 C.ar    1  UNL1        0.2359
      2 N          63.1981   86.9898   12.8169 N.ar    1  UNL1       -0.1935
      3 C          63.2618   88.4350   12.4205 C.ar    1  UNL1        0.1667
      4 C          62.6763   89.1844   11.2605 C.ar    1  UNL1        0.0357
      5 C          62.9144   90.6590   11.1230 C.ar    1  UNL1        0.0046
      6 C          63.7381   91.3842   12.1456 C.ar    1  UNL1        0.0208
      7 C          64.3236   90.6349   13.3056 C.ar    1  UNL1        0.1022
      8 N          64.0855   89.1603   13.4431 N.ar    1  UNL1       -0.2081
      9 N          64.5308   88.1632   14.4715 N.ar    1  UNL1       -0.1284
     10 C          61.8527   88.4592   10.2379 C.ar    1  UNL1       -0.0009
     11 C          62.3802   87.2082    9.6002 C.ar    1  UNL1        0.0021
     12 C          61.5565   86.4829    8.5776 C.ar    1  UNL1        0.0296
     13 C          60.2054   87.0087    8.1928 C.ar    1  UNL1        0.1398
     14 F          59.3818   86.2834    7.1703 F       1  UNL1       -0.2042
     15 C          59.6779   88.2597    8.8306 C.ar    1  UNL1        0.0254
     16 C          60.5015   88.9849    9.8531 C.ar    1  UNL1       -0.0195
     17 C          59.9741   90.2359   10.4909 C.3     1  UNL1        0.0311
     18 N          64.1829   85.5379   14.8336 N.pl3   1  UNL1       -0.3031
     19 H          64.5464   85.5533   15.7484 H       1  UNL1        0.1496
     20 N          62.5470   80.2971   12.4751 N.ar    1  UNL1       -0.2552
     21 N          61.4067   79.9722   13.3939 N.ar    1  UNL1       -0.1683
     22 C          61.2782   81.0897   14.3862 C.ar    1  UNL1        0.1170
     23 C          62.3390   82.1052   14.0807 C.ar    1  UNL1        0.0135
     24 C          63.1232   81.6154   12.8995 C.ar    1  UNL1        0.0532
     25 C          64.2605   82.4330   12.3630 C.3     1  UNL1        0.0469
     26 C          64.6138   83.7405   13.0077 C.3     1  UNL1        0.0262
     27 C          63.8296   84.2303   14.1889 C.3     1  UNL1        0.0766
     28 C          62.6922   83.4127   14.7254 C.3     1  UNL1        0.0487
     29 C          62.7491   79.8733    9.9197 C.3     1  UNL1        0.0284
     30 C          63.0268   79.4521   11.3324 C.3     1  UNL1        0.1271
@<TRIPOS>BOND
     1    29    30    1
     2    30    20    1
     3    20    21   ar
     4    21    22   ar
     5    22    23   ar
     6    23    24   ar
     7    24    25    1
     8    25    26    1
     9    26    27    1
    10    27    18    1
    11    18     1    1
    12     1     2   ar
    13     2     3   ar
    14     3     4   ar
    15     4    10    1
    16    10    11   ar
    17    11    12   ar
    18    12    13   ar
    19    13    14    1
    20    13    15   ar
    21    15    16   ar
    22    16    17    1
    23     4     5   ar
    24     5     6   ar
    25     6     7   ar
    26     7     8   ar
    27     8     9   ar
    28    27    28    1
    29    24    20   ar
    30     9     1   ar
    31    28    23    1
    32     8     3   ar
    33    16    10   ar
    34    18    19    1
@<TRIPOS>MOLECULE
*****
 30 34 0 0 0
SMALL
GASTEIGER

@<TRIPOS>ATOM
      1 C          63.7805   87.0875   14.9781 C.ar    1  UNL1        0.2359
      2 N          63.5974   86.5341   13.5960 N.ar    1  UNL1       -0.1935
      3 C          63.1641   85.1037   13.7231 C.ar    1  UNL1        0.1667
      4 C          62.8356   84.0596   12.6975 C.ar    1  UNL1        0.0357
      5 C          62.4226   82.6847   13.1326 C.ar    1  UNL1        0.0046
      6 C          62.3380   82.3541   14.5932 C.ar    1  UNL1        0.0208
      7 C          62.6664   83.3982   15.6188 C.ar    1  UNL1        0.1022
      8 N          63.0795   84.7731   15.1838 N.ar    1  UNL1       -0.2081
      9 N          63.4605   85.9991   15.9594 N.ar    1  UNL1       -0.1284
     10 C          62.9202   84.3902   11.2369 C.ar    1  UNL1       -0.0009
     11 C          63.8239   83.5976   10.3396 C.ar    1  UNL1        0.0021
     12 C          63.9085   83.9284    8.8789 C.ar    1  UNL1        0.0296
     13 C          63.0894   85.0516    8.3156 C.ar    1  UNL1        0.1398
     14 F          63.1740   85.3823    6.8550 F       1  UNL1       -0.2042
     15 C          62.1857   85.8442    9.2129 C.ar    1  UNL1        0.0254
     16 C          62.1011   85.5136   10.6735 C.ar    1  UNL1       -0.0195
     17 C          61.1975   86.3061   11.5708 C.3     1  UNL1        0.0311
     18 N          64.2086   88.4841   15.3191 N.pl3   1  UNL1       -0.3031
     19 H          64.3951   88.7272   16.2547 H       1  UNL1        0.1496
     20 N          64.5543   92.4273   10.8429 N.ar    1  UNL1       -0.2552
     21 N          63.4813   91.8694    9.9556 N.ar    1  UNL1       -0.1683
     22 C          62.9047   90.6599   10.6298 C.ar    1  UNL1        0.1170
     23 C          63.6213   90.4703   11.9338 C.ar    1  UNL1        0.0135
     24 C          64.6408   91.5626   12.0656 C.ar    1  UNL1        0.0532
     25 C          65.5163   91.6288   13.2818 C.3     1  UNL1        0.0469
     26 C          65.3722   90.6027   14.3663 C.3     1  UNL1        0.0262
     27 C          64.3527   89.5103   14.2345 C.3     1  UNL1        0.0766
     28 C          63.4773   89.4441   13.0183 C.3     1  UNL1        0.0487
     29 C          66.8049   93.4750   10.0766 C.3     1  UNL1        0.0284
     30 C          65.3934   93.6375   10.5577 C.3     1  UNL1        0.1271
@<TRIPOS>BOND
     1    29    30    1
     2    30    20    1
     3    20    21   ar
     4    21    22   ar
     5    22    23   ar
     6    23    24   ar
     7    24    25    1
     8    25    26    1
     9    26    27    1
    10    27    18    1
    11    18     1    1
    12     1     2   ar
    13     2     3   ar
    14     3     4   ar
    15     4    10    1
    16    10    11   ar
    17    11    12   ar
    18    12    13   ar
    19    13    14    1
    20    13    15   ar
    21    15    16   ar
    22    16    17    1
    23     4     5   ar
    24     5     6   ar
    25     6     7   ar
    26     7     8   ar
    27     8     9   ar
    28    27    28    1
    29    24    20   ar
    30     9     1   ar
    31    28    23    1
    32     8     3   ar
    33    16    10   ar
    34    18    19    1
@<TRIPOS>MOLECULE
*****
 30 34 0 0 0
SMALL
GASTEIGER

@<TRIPOS>ATOM
      1 C          63.5437   87.1220   13.4239 C.ar    1  UNL1        0.2359
      2 N          64.1902   88.4366   13.7462 N.ar    1  UNL1       -0.1935
      3 C          63.7795   89.4252   12.6955 C.ar    1  UNL1        0.1667
      4 C          64.1089   90.8752   12.4980 C.ar    1  UNL1        0.0357
      5 C          63.5380   91.6215   11.3288 C.ar    1  UNL1        0.0046
      6 C          62.6377   90.9179   10.3571 C.ar    1  UNL1        0.0208
      7 C          62.3082   89.4679   10.5546 C.ar    1  UNL1        0.1022
      8 N          62.8791   88.7215   11.7238 N.ar    1  UNL1       -0.2081
      9 N          62.7334   87.2981   12.1740 N.ar    1  UNL1       -0.1284
     10 C          65.0093   91.5788   13.4697 C.ar    1  UNL1       -0.0009
     11 C          64.7151   91.5242   14.9396 C.ar    1  UNL1        0.0021
     12 C          65.6155   92.2279   15.9113 C.ar    1  UNL1        0.0296
     13 C          66.8101   92.9860   15.4132 C.ar    1  UNL1        0.1398
     14 F          67.7104   93.6896   16.3849 F       1  UNL1       -0.2042
     15 C          67.1043   93.0406   13.9433 C.ar    1  UNL1        0.0254
     16 C          66.2039   92.3370   12.9716 C.ar    1  UNL1       -0.0195
     17 C          66.4981   92.3915   11.5018 C.3     1  UNL1        0.0311
     18 N          63.6831   85.8540   14.2129 N.pl3   1  UNL1       -0.3031
     19 H          63.9037   85.8925   15.1716 H       1  UNL1        0.1496
     20 N          62.7748   80.4623   11.8026 N.ar    1  UNL1       -0.2552
     21 N          62.1517   79.7794   12.9838 N.ar    1  UNL1       -0.1683
     22 C          62.0849   80.7688   14.1092 C.ar    1  UNL1        0.1170
     23 C          62.6668   82.0633   13.6235 C.ar    1  UNL1        0.0135
     24 C          63.0931   81.8739   12.1979 C.ar    1  UNL1        0.0532
     25 C          63.7161   83.0111   11.4440 C.3     1  UNL1        0.0469
     26 C          63.9128   84.3378   12.1156 C.3     1  UNL1        0.0262
     27 C          63.4864   84.5272   13.5412 C.3     1  UNL1        0.0766
     28 C          62.8634   83.3900   14.2952 C.3     1  UNL1        0.0487
     29 C          62.7083   78.3971   10.2275 C.3     1  UNL1        0.0284
     30 C          63.0340   79.8426   10.4614 C.3     1  UNL1        0.1271
@<TRIPOS>BOND
     1    29    30    1
     2    30    20    1
     3    20    21   ar
     4    21    22   ar
     5    22    23   ar
     6    23    24   ar
     7    24    25    1
     8    25    26    1
     9    26    27    1
    10    27    18    1
    11    18     1    1
    12     1     2   ar
    13     2     3   ar
    14     3     4   ar
    15     4    10    1
    16    10    11   ar
    17    11    12   ar
    18    12    13   ar
    19    13    14    1
    20    13    15   ar
    21    15    16   ar
    22    16    17    1
    23     4     5   ar
    24     5     6   ar
    25     6     7   ar
    26     7     8   ar
    27     8     9   ar
    28    27    28    1
    29    24    20   ar
    30     9     1   ar
    31    28    23    1
    32     8     3   ar
    33    16    10   ar
    34    18    19    1
