@<TRIPOS>MOLECULE
*****
 25 27 0 0 0
SMALL
GASTEIGER

@<TRIPOS>ATOM
      1 C          63.2063   84.6821   12.0530 C.ar    1  UNL1        0.0070
      2 C          64.0050   83.6647   11.2935 C.ar    1  UNL1       -0.0017
      3 C          63.9096   83.6006    9.7980 C.ar    1  UNL1       -0.0002
      4 C          63.0155   84.5539    9.0619 C.ar    1  UNL1       -0.0000
      5 C          62.2167   85.5712    9.8215 C.ar    1  UNL1       -0.0002
      6 C          62.3121   85.6353   11.3170 C.ar    1  UNL1       -0.0017
      7 C          61.3226   86.5245    9.0854 C.ar    1  UNL1        0.0000
      8 C          61.3270   87.9821    9.4394 C.ar    1  UNL1        0.0009
      9 C          60.4329   88.9354    8.7033 C.ar    1  UNL1        0.0114
     10 C          59.5343   88.4311    7.6134 C.ar    1  UNL1        0.0577
     11 CL         58.6401   89.3844    6.8773 Cl      1  UNL1       -0.0822
     12 C          59.5298   86.9735    7.2594 C.ar    1  UNL1        0.0114
     13 C          60.4239   86.0202    7.9955 C.ar    1  UNL1        0.0009
     14 C          63.3017   84.7462   13.5487 C.3     1  UNL1        0.1410
     15 O          63.4494   86.2371   13.4754 O.3     1  UNL1       -0.3771
     16 H          63.5876   86.5925   14.3673 H       1  UNL1        0.2112
     17 C          63.1540   83.2553   13.6220 C.ar    1  UNL1        0.0825
     18 C          64.1926   82.2893   14.1101 C.ar    1  UNL1        0.1157
     19 N          63.6222   80.9055   14.0098 N.ar    1  UNL1       -0.2228
     20 C          62.2311   81.0164   13.4597 C.ar    1  UNL1        0.1749
     21 N          61.9417   82.4685   13.2200 N.ar    1  UNL1       -0.3361
     22 H          61.1033   82.8401   12.8618 H       1  UNL1        0.1673
     23 C          62.2547   84.3308   15.8899 C.3     1  UNL1        0.0031
     24 C          63.3971   84.8103   15.0442 C.3     1  UNL1        0.0340
     25 C          64.6349   85.3539   15.6943 C.3     1  UNL1        0.0031
@<TRIPOS>BOND
     1    23    24    1
     2    24    25    1
     3    24    14    1
     4    14    15    1
     5    14     1    1
     6     1     2   ar
     7     2     3   ar
     8     3     4   ar
     9     4     5   ar
    10     5     7    1
    11     7     8   ar
    12     8     9   ar
    13     9    10   ar
    14    10    11    1
    15    10    12   ar
    16    12    13   ar
    17     5     6   ar
    18    14    17    1
    19    17    18   ar
    20    18    19   ar
    21    19    20   ar
    22    20    21   ar
    23     6     1   ar
    24    21    17   ar
    25    13     7   ar
    26    15    16    1
    27    21    22    1
@<TRIPOS>MOLECULE
*****
 25 27 0 0 0
SMALL
GASTEIGER

@<TRIPOS>ATOM
      1 C          64.7810   91.9059   11.8942 C.ar    1  UNL1        0.0070
      2 C          64.8763   91.5496   13.3481 C.ar    1  UNL1       -0.0017
      3 C          64.0641   90.4142   13.8967 C.ar    1  UNL1       -0.0002
      4 C          63.1567   89.6350   12.9915 C.ar    1  UNL1       -0.0000
      5 C          63.0614   89.9913   11.5376 C.ar    1  UNL1       -0.0002
      6 C          63.8736   91.1268   10.9889 C.ar    1  UNL1       -0.0017
      7 C          62.1539   89.2122   10.6323 C.ar    1  UNL1        0.0000
      8 C          62.3437   87.7329   10.4726 C.ar    1  UNL1        0.0009
      9 C          61.4363   86.9538    9.5673 C.ar    1  UNL1        0.0114
     10 C          60.3390   87.6539    8.8218 C.ar    1  UNL1        0.0577
     11 CL         59.4316   86.8748    7.9166 Cl      1  UNL1       -0.0822
     12 C          60.1492   89.1333    8.9816 C.ar    1  UNL1        0.0114
     13 C          61.0567   89.9124    9.8869 C.ar    1  UNL1        0.0009
     14 C          65.5932   93.0414   11.3454 C.3     1  UNL1        0.1410
     15 O          64.6380   93.1693   10.1961 O.3     1  UNL1       -0.3771
     16 H          64.9532   93.8567    9.5886 H       1  UNL1        0.2112
     17 C          66.5485   92.9135   12.4948 C.ar    1  UNL1        0.0825
     18 C          66.5252   93.7264   13.7553 C.ar    1  UNL1        0.1157
     19 N          67.6571   93.2655   14.6251 N.ar    1  UNL1       -0.2228
     20 C          68.3800   92.1678   13.9021 C.ar    1  UNL1        0.1749
     21 N          67.6949   91.9503   12.5855 N.ar    1  UNL1       -0.3361
     22 H          67.9523   91.2911   11.9012 H       1  UNL1        0.1673
     23 C          67.4928   93.9078    9.7992 C.3     1  UNL1        0.0031
     24 C          66.4054   94.1769   10.7968 C.3     1  UNL1        0.0340
     25 C          66.1302   95.5815   11.2457 C.3     1  UNL1        0.0031
@<TRIPOS>BOND
     1    23    24    1
     2    24    25    1
     3    24    14    1
     4    14    15    1
     5    14     1    1
     6     1     2   ar
     7     2     3   ar
     8     3     4   ar
     9     4     5   ar
    10     5     7    1
    11     7     8   ar
    12     8     9   ar
    13     9    10   ar
    14    10    11    1
    15    10    12   ar
    16    12    13   ar
    17     5     6   ar
    18    14    17    1
    19    17    18   ar
    20    18    19   ar
    21    19    20   ar
    22    20    21   ar
    23     6     1   ar
    24    21    17   ar
    25    13     7   ar
    26    15    16    1
    27    21    22    1
@<TRIPOS>MOLECULE
*****
 25 27 0 0 0
SMALL
GASTEIGER

@<TRIPOS>ATOM
      1 C          62.0275   86.9252   10.2563 C.ar    1  UNL1        0.0070
      2 C          62.6037   86.8236    8.8751 C.ar    1  UNL1       -0.0017
      3 C          63.2203   85.5369    8.4125 C.ar    1  UNL1       -0.0002
      4 C          63.2609   84.3517    9.3311 C.ar    1  UNL1       -0.0000
      5 C          62.6848   84.4533   10.7123 C.ar    1  UNL1       -0.0002
      6 C          62.0681   85.7400   11.1749 C.ar    1  UNL1       -0.0017
      7 C          62.7253   83.2682   11.6309 C.ar    1  UNL1        0.0000
      8 C          62.5696   83.4603   13.1103 C.ar    1  UNL1        0.0009
      9 C          62.6101   82.2751   14.0289 C.ar    1  UNL1        0.0114
     10 C          62.8064   80.8979   13.4680 C.ar    1  UNL1        0.0577
     11 CL         62.8470   79.7127   14.3866 Cl      1  UNL1       -0.0822
     12 C          62.9622   80.7058   11.9886 C.ar    1  UNL1        0.0114
     13 C          62.9216   81.8909   11.0700 C.ar    1  UNL1        0.0009
     14 C          61.4108   88.2119   10.7190 C.3     1  UNL1        0.1410
     15 O          62.3295   88.2260   11.9046 O.3     1  UNL1       -0.3771
     16 H          62.1193   88.9874   12.4676 H       1  UNL1        0.2112
     17 C          60.4922   88.1979    9.5334 C.ar    1  UNL1        0.0825
     18 C          59.5332   87.1018    9.1739 C.ar    1  UNL1        0.1157
     19 N          58.8194   87.5040    7.9173 N.ar    1  UNL1       -0.2228
     20 C          59.3373   88.8486    7.5002 C.ar    1  UNL1        0.1749
     21 N          60.3710   89.2774    8.4989 N.ar    1  UNL1       -0.3361
     22 H          60.8806   90.1196    8.4790 H       1  UNL1        0.1673
     23 C          59.4695   89.4851   11.8853 C.3     1  UNL1        0.0031
     24 C          60.7941   89.4986   11.1816 C.3     1  UNL1        0.0340
     25 C          61.5021   90.7989   10.9406 C.3     1  UNL1        0.0031
@<TRIPOS>BOND
     1    23    24    1
     2    24    25    1
     3    24    14    1
     4    14    15    1
     5    14     1    1
     6     1     2   ar
     7     2     3   ar
     8     3     4   ar
     9     4     5   ar
    10     5     7    1
    11     7     8   ar
    12     8     9   ar
    13     9    10   ar
    14    10    11    1
    15    10    12   ar
    16    12    13   ar
    17     5     6   ar
    18    14    17    1
    19    17    18   ar
    20    18    19   ar
    21    19    20   ar
    22    20    21   ar
    23     6     1   ar
    24    21    17   ar
    25    13     7   ar
    26    15    16    1
    27    21    22    1
@<TRIPOS>MOLECULE
*****
 25 27 0 0 0
SMALL
GASTEIGER

@<TRIPOS>ATOM
      1 C          62.9663   83.3778   11.3477 C.ar    1  UNL1        0.0070
      2 C          63.7151   83.0712   10.0847 C.ar    1  UNL1       -0.0017
      3 C          63.7866   84.0926    8.9885 C.ar    1  UNL1       -0.0002
      4 C          63.1094   85.4206    9.1555 C.ar    1  UNL1       -0.0000
      5 C          62.3606   85.7272   10.4185 C.ar    1  UNL1       -0.0002
      6 C          62.2891   84.7058   11.5146 C.ar    1  UNL1       -0.0017
      7 C          61.6834   87.0552   10.5854 C.ar    1  UNL1        0.0000
      8 C          62.3275   88.1266   11.4142 C.ar    1  UNL1        0.0009
      9 C          61.6503   89.4546   11.5812 C.ar    1  UNL1        0.0114
     10 C          60.3290   89.7111   10.9192 C.ar    1  UNL1        0.0577
     11 CL         59.6517   91.0391   11.0861 Cl      1  UNL1       -0.0822
     12 C          59.6848   88.6397   10.0904 C.ar    1  UNL1        0.0114
     13 C          60.3620   87.3117    9.9235 C.ar    1  UNL1        0.0009
     14 C          62.8947   82.3564   12.4440 C.3     1  UNL1        0.1410
     15 O          62.3501   81.3518   11.4724 O.3     1  UNL1       -0.3771
     16 H          62.1439   80.5278   11.9408 H       1  UNL1        0.2112
     17 C          63.4394   83.3610   13.4155 C.ar    1  UNL1        0.0825
     18 C          62.6793   84.0053   14.5367 C.ar    1  UNL1        0.1157
     19 N          63.6101   84.9403   15.2507 N.ar    1  UNL1       -0.2228
     20 C          64.9455   84.8738   14.5706 C.ar    1  UNL1        0.1749
     21 N          64.8400   83.8978   13.4365 N.ar    1  UNL1       -0.3361
     22 H          65.5631   83.6526   12.8150 H       1  UNL1        0.1673
     23 C          61.4974   80.9686   14.1385 C.3     1  UNL1        0.0031
     24 C          62.8232   81.3350   13.5402 C.3     1  UNL1        0.0340
     25 C          64.0775   80.6801   14.0381 C.3     1  UNL1        0.0031
@<TRIPOS>BOND
     1    23    24    1
     2    24    25    1
     3    24    14    1
     4    14    15    1
     5    14     1    1
     6     1     2   ar
     7     2     3   ar
     8     3     4   ar
     9     4     5   ar
    10     5     7    1
    11     7     8   ar
    12     8     9   ar
    13     9    10   ar
    14    10    11    1
    15    10    12   ar
    16    12    13   ar
    17     5     6   ar
    18    14    17    1
    19    17    18   ar
    20    18    19   ar
    21    19    20   ar
    22    20    21   ar
    23     6     1   ar
    24    21    17   ar
    25    13     7   ar
    26    15    16    1
    27    21    22    1
@<TRIPOS>MOLECULE
*****
 25 27 0 0 0
SMALL
GASTEIGER

@<TRIPOS>ATOM
      1 C          62.3646   86.0755   11.4631 C.ar    1  UNL1        0.0070
      2 C          61.0076   86.4268   10.9292 C.ar    1  UNL1       -0.0017
      3 C          60.5220   87.8447   10.9893 C.ar    1  UNL1       -0.0002
      4 C          61.3934   88.9113   11.5834 C.ar    1  UNL1       -0.0000
      5 C          62.7504   88.5601   12.1173 C.ar    1  UNL1       -0.0002
      6 C          63.2360   87.1422   12.0572 C.ar    1  UNL1       -0.0017
      7 C          63.6218   89.6267   12.7114 C.ar    1  UNL1        0.0000
      8 C          63.8540   90.9072   11.9655 C.ar    1  UNL1        0.0009
      9 C          64.7254   91.9739   12.5595 C.ar    1  UNL1        0.0114
     10 C          65.3646   91.7601   13.8995 C.ar    1  UNL1        0.0577
     11 CL         66.2360   92.8267   14.4936 Cl      1  UNL1       -0.0822
     12 C          65.1325   90.4796   14.6454 C.ar    1  UNL1        0.0114
     13 C          64.2611   89.4129   14.0513 C.ar    1  UNL1        0.0009
     14 C          62.8503   84.6575   11.4030 C.3     1  UNL1        0.1410
     15 O          62.6444   84.6500    9.9172 O.3     1  UNL1       -0.3771
     16 H          62.8502   83.7692    9.5668 H       1  UNL1        0.2112
     17 C          63.0562   84.6651   12.8887 C.ar    1  UNL1        0.0825
     18 C          64.3755   84.5724   13.5965 C.ar    1  UNL1        0.1157
     19 N          64.1137   84.6167   15.0729 N.ar    1  UNL1       -0.2228
     20 C          62.6325   84.7368   15.2775 C.ar    1  UNL1        0.1749
     21 N          61.9790   84.7667   13.9277 N.ar    1  UNL1       -0.3361
     22 H          61.0127   84.8402   13.7541 H       1  UNL1        0.1673
     23 C          64.5737   82.9031   10.5652 C.3     1  UNL1        0.0031
     24 C          63.3360   83.2396   11.3429 C.3     1  UNL1        0.0340
     25 C          62.5839   82.1582   12.0605 C.3     1  UNL1        0.0031
@<TRIPOS>BOND
     1    23    24    1
     2    24    25    1
     3    24    14    1
     4    14    15    1
     5    14     1    1
     6     1     2   ar
     7     2     3   ar
     8     3     4   ar
     9     4     5   ar
    10     5     7    1
    11     7     8   ar
    12     8     9   ar
    13     9    10   ar
    14    10    11    1
    15    10    12   ar
    16    12    13   ar
    17     5     6   ar
    18    14    17    1
    19    17    18   ar
    20    18    19   ar
    21    19    20   ar
    22    20    21   ar
    23     6     1   ar
    24    21    17   ar
    25    13     7   ar
    26    15    16    1
    27    21    22    1
@<TRIPOS>MOLECULE
*****
 25 27 0 0 0
SMALL
GASTEIGER

@<TRIPOS>ATOM
      1 C          62.9263   84.5997   13.2713 C.ar    1  UNL1        0.0070
      2 C          63.8421   85.4730   14.0767 C.ar    1  UNL1       -0.0017
      3 C          64.0065   86.9200   13.7175 C.ar    1  UNL1       -0.0002
      4 C          63.2551   87.4938   12.5529 C.ar    1  UNL1       -0.0000
      5 C          62.3393   86.6205   11.7475 C.ar    1  UNL1       -0.0002
      6 C          62.1750   85.1734   12.1067 C.ar    1  UNL1       -0.0017
      7 C          61.5880   87.1942   10.5829 C.ar    1  UNL1        0.0000
      8 C          61.4887   88.6812   10.4135 C.ar    1  UNL1        0.0009
      9 C          60.7374   89.2549    9.2489 C.ar    1  UNL1        0.0114
     10 C          60.0852   88.3416    8.2537 C.ar    1  UNL1        0.0577
     11 CL         59.3338   88.9153    7.0891 Cl      1  UNL1       -0.0822
     12 C          60.1844   86.8545    8.4231 C.ar    1  UNL1        0.0114
     13 C          60.9358   86.2808    9.5877 C.ar    1  UNL1        0.0009
     14 C          62.7619   83.1526   13.6305 C.3     1  UNL1        0.1410
     15 O          62.1891   83.5475   14.9594 O.3     1  UNL1       -0.3771
     16 H          62.0102   82.7513   15.4838 H       1  UNL1        0.2112
     17 C          63.3348   82.7578   12.3017 C.ar    1  UNL1        0.0825
     18 C          64.6407   83.2251   11.7305 C.ar    1  UNL1        0.1157
     19 N          64.8153   82.5823   10.3864 N.ar    1  UNL1       -0.2228
     20 C          63.6172   81.7177   10.1269 C.ar    1  UNL1        0.1749
     21 N          62.7023   81.8261   11.3106 N.ar    1  UNL1       -0.3361
     22 H          61.8383   81.3665   11.4181 H       1  UNL1        0.1673
     23 C          63.8039   80.8241   14.1224 C.3     1  UNL1        0.0031
     24 C          62.5976   81.7056   13.9896 C.3     1  UNL1        0.0340
     25 C          61.2268   81.1400   14.2160 C.3     1  UNL1        0.0031
@<TRIPOS>BOND
     1    23    24    1
     2    24    25    1
     3    24    14    1
     4    14    15    1
     5    14     1    1
     6     1     2   ar
     7     2     3   ar
     8     3     4   ar
     9     4     5   ar
    10     5     7    1
    11     7     8   ar
    12     8     9   ar
    13     9    10   ar
    14    10    11    1
    15    10    12   ar
    16    12    13   ar
    17     5     6   ar
    18    14    17    1
    19    17    18   ar
    20    18    19   ar
    21    19    20   ar
    22    20    21   ar
    23     6     1   ar
    24    21    17   ar
    25    13     7   ar
    26    15    16    1
    27    21    22    1
@<TRIPOS>MOLECULE
*****
 25 27 0 0 0
SMALL
GASTEIGER

@<TRIPOS>ATOM
      1 C          62.3470   89.9085   11.6359 C.ar    1  UNL1        0.0070
      2 C          61.0351   90.1186   12.3321 C.ar    1  UNL1       -0.0017
      3 C          59.8419   89.2949   11.9481 C.ar    1  UNL1       -0.0002
      4 C          59.9605   88.2610   10.8678 C.ar    1  UNL1       -0.0000
      5 C          61.2724   88.0508   10.1716 C.ar    1  UNL1       -0.0002
      6 C          62.4656   88.8745   10.5557 C.ar    1  UNL1       -0.0017
      7 C          61.3910   87.0168    9.0914 C.ar    1  UNL1        0.0000
      8 C          60.2274   86.7415    8.1858 C.ar    1  UNL1        0.0009
      9 C          60.3461   85.7075    7.1055 C.ar    1  UNL1        0.0114
     10 C          61.6283   84.9490    6.9309 C.ar    1  UNL1        0.0577
     11 CL         61.7469   83.9151    5.8507 Cl      1  UNL1       -0.0822
     12 C          62.7918   85.2244    7.8365 C.ar    1  UNL1        0.0114
     13 C          62.6732   86.2583    8.9168 C.ar    1  UNL1        0.0009
     14 C          63.5404   90.7322   12.0199 C.3     1  UNL1        0.1410
     15 O          63.5295   91.3790   10.6666 O.3     1  UNL1       -0.3771
     16 H          64.2831   91.9851   10.5918 H       1  UNL1        0.2112
     17 C          63.5513   90.0854   13.3732 C.ar    1  UNL1        0.0825
     18 C          64.0045   88.6887   13.6793 C.ar    1  UNL1        0.1157
     19 N          63.8442   88.4618   15.1534 N.ar    1  UNL1       -0.2228
     20 C          63.2920   89.7184   15.7584 C.ar    1  UNL1        0.1749
     21 N          63.1109   90.7219   14.6582 N.ar    1  UNL1       -0.3361
     22 H          62.7640   91.6374   14.7614 H       1  UNL1        0.1673
     23 C          65.4975   91.2325   13.6537 C.3     1  UNL1        0.0031
     24 C          64.7337   91.5559   12.4040 C.3     1  UNL1        0.0340
     25 C          65.1632   92.7032   11.5382 C.3     1  UNL1        0.0031
@<TRIPOS>BOND
     1    23    24    1
     2    24    25    1
     3    24    14    1
     4    14    15    1
     5    14     1    1
     6     1     2   ar
     7     2     3   ar
     8     3     4   ar
     9     4     5   ar
    10     5     7    1
    11     7     8   ar
    12     8     9   ar
    13     9    10   ar
    14    10    11    1
    15    10    12   ar
    16    12    13   ar
    17     5     6   ar
    18    14    17    1
    19    17    18   ar
    20    18    19   ar
    21    19    20   ar
    22    20    21   ar
    23     6     1   ar
    24    21    17   ar
    25    13     7   ar
    26    15    16    1
    27    21    22    1
@<TRIPOS>MOLECULE
*****
 25 27 0 0 0
SMALL
GASTEIGER

@<TRIPOS>ATOM
      1 C          63.3329   83.9529   14.2616 C.ar    1  UNL1        0.0070
      2 C          64.2433   84.2143   15.4247 C.ar    1  UNL1       -0.0017
      3 C          64.8132   85.5853   15.6378 C.ar    1  UNL1       -0.0002
      4 C          64.4727   86.6950   14.6877 C.ar    1  UNL1       -0.0000
      5 C          63.5624   86.4337   13.5246 C.ar    1  UNL1       -0.0002
      6 C          62.9925   85.0627   13.3115 C.ar    1  UNL1       -0.0017
      7 C          63.2219   87.5434   12.5745 C.ar    1  UNL1        0.0000
      8 C          62.5031   87.2399   11.2935 C.ar    1  UNL1        0.0009
      9 C          62.1627   88.3496   10.3434 C.ar    1  UNL1        0.0114
     10 C          62.5410   89.7628   10.6744 C.ar    1  UNL1        0.0577
     11 CL         62.2006   90.8726    9.7244 Cl      1  UNL1       -0.0822
     12 C          63.2598   90.0663   11.9555 C.ar    1  UNL1        0.0114
     13 C          63.6003   88.9566   12.9055 C.ar    1  UNL1        0.0009
     14 C          62.7630   82.5819   14.0485 C.3     1  UNL1        0.1410
     15 O          62.2080   82.5959   15.4420 O.3     1  UNL1       -0.3771
     16 H          61.7827   81.7445   15.6292 H       1  UNL1        0.2112
     17 C          63.3179   82.5678   12.6550 C.ar    1  UNL1        0.0825
     18 C          64.7711   82.5972   12.2844 C.ar    1  UNL1        0.1157
     19 N          64.8685   82.5695   10.7877 N.ar    1  UNL1       -0.2228
     20 C          63.4753   82.5230   10.2334 C.ar    1  UNL1        0.1749
     21 N          62.5171   82.5219   11.3874 N.ar    1  UNL1       -0.3361
     22 H          61.5350   82.4957   11.3241 H       1  UNL1        0.1673
     23 C          63.0840   80.0892   13.3901 C.3     1  UNL1        0.0031
     24 C          62.1931   81.2108   13.8353 C.3     1  UNL1        0.0340
     25 C          60.7322   80.9614   14.0674 C.3     1  UNL1        0.0031
@<TRIPOS>BOND
     1    23    24    1
     2    24    25    1
     3    24    14    1
     4    14    15    1
     5    14     1    1
     6     1     2   ar
     7     2     3   ar
     8     3     4   ar
     9     4     5   ar
    10     5     7    1
    11     7     8   ar
    12     8     9   ar
    13     9    10   ar
    14    10    11    1
    15    10    12   ar
    16    12    13   ar
    17     5     6   ar
    18    14    17    1
    19    17    18   ar
    20    18    19   ar
    21    19    20   ar
    22    20    21   ar
    23     6     1   ar
    24    21    17   ar
    25    13     7   ar
    26    15    16    1
    27    21    22    1
@<TRIPOS>MOLECULE
*****
 25 27 0 0 0
SMALL
GASTEIGER

@<TRIPOS>ATOM
      1 C          64.6566   90.8809   14.1467 C.ar    1  UNL1        0.0070
      2 C          64.0994   91.3327   15.4640 C.ar    1  UNL1       -0.0017
      3 C          63.5136   90.3306   16.4139 C.ar    1  UNL1       -0.0002
      4 C          63.4849   88.8765   16.0466 C.ar    1  UNL1       -0.0000
      5 C          64.0421   88.4247   14.7293 C.ar    1  UNL1       -0.0002
      6 C          64.6280   89.4268   13.7794 C.ar    1  UNL1       -0.0017
      7 C          64.0134   86.9706   14.3619 C.ar    1  UNL1        0.0000
      8 C          63.3843   86.5353   13.0718 C.ar    1  UNL1        0.0009
      9 C          63.3556   85.0812   12.7044 C.ar    1  UNL1        0.0114
     10 C          63.9561   84.0625   13.6272 C.ar    1  UNL1        0.0577
     11 CL         63.9274   82.6085   13.2599 Cl      1  UNL1       -0.0822
     12 C          64.5852   84.4979   14.9174 C.ar    1  UNL1        0.0114
     13 C          64.6139   85.9519   15.2848 C.ar    1  UNL1        0.0009
     14 C          65.2425   91.8830   13.1967 C.3     1  UNL1        0.1410
     15 O          64.1438   91.5963   12.2166 O.3     1  UNL1       -0.3771
     16 H          64.2908   92.1097   11.4068 H       1  UNL1        0.2112
     17 C          66.3412   92.1698   14.1768 C.ar    1  UNL1        0.0825
     18 C          67.7369   91.6231   14.1215 C.ar    1  UNL1        0.1157
     19 N          68.4954   92.1690   15.2949 N.ar    1  UNL1       -0.2228
     20 C          67.5684   93.0531   16.0754 C.ar    1  UNL1        0.1749
     21 N          66.2371   93.0536   15.3844 N.ar    1  UNL1       -0.3361
     22 H          65.4356   93.5473   15.6728 H       1  UNL1        0.1673
     23 C          66.1494   94.2710   12.7225 C.3     1  UNL1        0.0031
     24 C          65.8284   92.8852   12.2468 C.3     1  UNL1        0.0340
     25 C          66.0933   92.5014   10.8210 C.3     1  UNL1        0.0031
@<TRIPOS>BOND
     1    23    24    1
     2    24    25    1
     3    24    14    1
     4    14    15    1
     5    14     1    1
     6     1     2   ar
     7     2     3   ar
     8     3     4   ar
     9     4     5   ar
    10     5     7    1
    11     7     8   ar
    12     8     9   ar
    13     9    10   ar
    14    10    11    1
    15    10    12   ar
    16    12    13   ar
    17     5     6   ar
    18    14    17    1
    19    17    18   ar
    20    18    19   ar
    21    19    20   ar
    22    20    21   ar
    23     6     1   ar
    24    21    17   ar
    25    13     7   ar
    26    15    16    1
    27    21    22    1
