@<TRIPOS>MOLECULE
*****
 27 29 0 0 0
SMALL
GASTEIGER

@<TRIPOS>ATOM
      1 C          65.8411   93.2157   11.9771 C.ar    1  UNL1        0.0615
      2 C          66.4505   93.4044   13.3347 C.ar    1  UNL1        0.0186
      3 C          66.0461   92.5106   14.4692 C.ar    1  UNL1        0.0398
      4 C          65.0321   91.4278   14.2463 C.ar    1  UNL1        0.1568
      5 C          64.4227   91.2390   12.8887 C.ar    1  UNL1        0.1242
      6 N          63.4064   90.2646   12.3715 N.ar    1  UNL1       -0.2208
      7 C          63.1827   90.5563   10.9173 C.ar    1  UNL1        0.1659
      8 S          64.0609   91.7110   10.5357 S.2     1  UNL1       -0.0500
      9 C          64.8272   92.1330   11.7541 C.ar    1  UNL1        0.0664
     10 N          66.2456   94.1096   10.8425 N.am    1  UNL1       -0.2581
     11 C          67.3790   93.7137    9.9431 C.2     1  UNL1        0.2298
     12 C          67.7835   94.6076    8.8086 C.3     1  UNL1        0.0952
     13 O          68.1078   92.4239   10.1784 O.2     1  UNL1       -0.2745
     14 C          65.9475   96.6454   11.3228 C.3     1  UNL1        0.0237
     15 C          65.5168   95.3993   10.6073 C.3     1  UNL1        0.0983
     16 N          62.2455   89.8222   10.0047 N.am    1  UNL1       -0.2594
     17 C          62.0014   88.3555   10.2025 C.2     1  UNL1        0.2683
     18 O          62.6945   87.6228   11.3128 O.2     1  UNL1       -0.2681
     19 H          61.7906   90.3031    9.2760 H       1  UNL1        0.1571
     20 C          61.0642   87.6214    9.2899 C.ar    1  UNL1        0.1330
     21 C          59.6506   88.0134    8.9772 C.ar    1  UNL1        0.0458
     22 C          59.0888   87.0007    8.0238 C.ar    1  UNL1        0.1218
     23 N          60.1552   85.9828    7.7473 N.ar    1  UNL1       -0.1675
     24 N          61.3761   86.3665    8.5298 N.ar    1  UNL1       -0.2443
     25 C          62.6801   85.6252    8.5489 C.3     1  UNL1        0.1539
     26 O          64.6277   90.5339   15.3809 O.3     1  UNL1       -0.4699
     27 C          63.6048   90.9993   16.3745 C.3     1  UNL1        0.2525
@<TRIPOS>BOND
     1    14    15    1
     2    15    10    1
     3    10    11   am
     4    11    12    1
     5    11    13    2
     6    10     1    1
     7     1     2   ar
     8     2     3   ar
     9     3     4   ar
    10     4    26    1
    11    26    27    1
    12     4     5   ar
    13     5     6   ar
    14     6     7   ar
    15     7    16    1
    16    16    17   am
    17    17    18    2
    18    17    20    1
    19    20    21   ar
    20    21    22   ar
    21    22    23   ar
    22    23    24   ar
    23    24    25    1
    24     7     8   ar
    25     8     9   ar
    26     9     1   ar
    27     9     5   ar
    28    24    20   ar
    29    16    19    1
@<TRIPOS>MOLECULE
*****
 27 29 0 0 0
SMALL
GASTEIGER

@<TRIPOS>ATOM
      1 C          61.8496   86.5430   10.8925 C.ar    1  UNL1        0.0615
      2 C          60.6566   86.6373    9.9882 C.ar    1  UNL1        0.0186
      3 C          59.9508   87.9490    9.8121 C.ar    1  UNL1        0.0398
      4 C          60.4379   89.1666   10.5404 C.ar    1  UNL1        0.1568
      5 C          61.6309   89.0723   11.4447 C.ar    1  UNL1        0.1242
      6 N          62.3354   90.0945   12.2867 N.ar    1  UNL1       -0.2208
      7 C          63.4766   89.4144   12.9831 C.ar    1  UNL1        0.1659
      8 S          63.4775   87.9719   12.5716 S.2     1  UNL1       -0.0500
      9 C          62.3368   87.7605   11.6207 C.ar    1  UNL1        0.0664
     10 N          62.5555   85.2312   11.0685 N.am    1  UNL1       -0.2581
     11 C          63.2658   84.6000    9.9078 C.2     1  UNL1        0.2298
     12 C          63.9716   83.2883   10.0838 C.3     1  UNL1        0.0952
     13 O          63.2701   85.2808    8.5712 O.2     1  UNL1       -0.2745
     14 C          63.7920   84.5448   13.2479 C.3     1  UNL1        0.0237
     15 C          62.5511   84.5506   12.4052 C.3     1  UNL1        0.0983
     16 N          64.4467   90.0628   13.9257 N.am    1  UNL1       -0.2594
     17 C          65.1401   91.3332   13.5316 C.2     1  UNL1        0.2683
     18 O          64.8635   91.9552   12.1950 O.2     1  UNL1       -0.2681
     19 H          64.6283   89.6547   14.8030 H       1  UNL1        0.1571
     20 C          66.1102   91.9816   14.4743 C.ar    1  UNL1        0.1330
     21 C          67.5352   92.3353   14.1675 C.ar    1  UNL1        0.0458
     22 C          68.1312   92.9625   15.3929 C.ar    1  UNL1        0.1218
     23 N          67.0746   92.9964   16.4570 N.ar    1  UNL1       -0.1675
     24 N          65.8254   92.3902   15.8892 N.ar    1  UNL1       -0.2443
     25 C          64.5207   92.2220   16.6099 C.3     1  UNL1        0.1539
     26 O          59.7320   90.4784   10.3643 O.3     1  UNL1       -0.4699
     27 C          58.9344   91.0585   11.4945 C.3     1  UNL1        0.2525
@<TRIPOS>BOND
     1    14    15    1
     2    15    10    1
     3    10    11   am
     4    11    12    1
     5    11    13    2
     6    10     1    1
     7     1     2   ar
     8     2     3   ar
     9     3     4   ar
    10     4    26    1
    11    26    27    1
    12     4     5   ar
    13     5     6   ar
    14     6     7   ar
    15     7    16    1
    16    16    17   am
    17    17    18    2
    18    17    20    1
    19    20    21   ar
    20    21    22   ar
    21    22    23   ar
    22    23    24   ar
    23    24    25    1
    24     7     8   ar
    25     8     9   ar
    26     9     1   ar
    27     9     5   ar
    28    24    20   ar
    29    16    19    1
@<TRIPOS>MOLECULE
*****
 27 29 0 0 0
SMALL
GASTEIGER

@<TRIPOS>ATOM
      1 C          64.5835   90.1504   14.3261 C.ar    1  UNL1        0.0615
      2 C          65.5214   91.2440   14.7435 C.ar    1  UNL1        0.0186
      3 C          65.8321   92.3668   13.7987 C.ar    1  UNL1        0.0398
      4 C          65.2050   92.3960   12.4363 C.ar    1  UNL1        0.1568
      5 C          64.2671   91.3023   12.0189 C.ar    1  UNL1        0.1242
      6 N          63.5038   91.0647   10.7497 N.ar    1  UNL1       -0.2208
      7 C          62.7214   89.7951   10.9101 C.ar    1  UNL1        0.1659
      8 S          63.0011   89.2479   12.2785 S.2     1  UNL1       -0.0500
      9 C          63.9564   90.1795   12.9638 C.ar    1  UNL1        0.0664
     10 N          64.2728   89.0276   15.2709 N.am    1  UNL1       -0.2581
     11 C          63.3805   89.2670   16.4528 C.2     1  UNL1        0.2298
     12 C          63.0698   88.1443   17.3976 C.3     1  UNL1        0.0952
     13 O          62.7990   90.6293   16.6895 O.2     1  UNL1       -0.2745
     14 C          64.0076   86.5825   14.4334 C.3     1  UNL1        0.0237
     15 C          64.8543   87.6653   15.0341 C.3     1  UNL1        0.0983
     16 N          61.8178   89.1804    9.8826 N.am    1  UNL1       -0.2594
     17 C          61.6701   87.6895    9.8094 C.2     1  UNL1        0.2683
     18 O          62.4259   86.8132   10.7638 O.2     1  UNL1       -0.2681
     19 H          61.3217   89.7555    9.2562 H       1  UNL1        0.1571
     20 C          60.7665   87.0749    8.7819 C.ar    1  UNL1        0.1330
     21 C          59.3601   87.4986    8.4781 C.ar    1  UNL1        0.0458
     22 C          58.8352   86.6143    7.3861 C.ar    1  UNL1        0.1218
     23 N          59.9171   85.6440    7.0150 N.ar    1  UNL1       -0.1675
     24 N          61.1109   85.9287    7.8777 N.ar    1  UNL1       -0.2443
     25 C          62.4192   85.1958    7.8423 C.3     1  UNL1        0.1539
     26 O          65.5158   93.5188   11.4915 O.3     1  UNL1       -0.4699
     27 C          66.4934   93.3093   10.3733 C.3     1  UNL1        0.2525
@<TRIPOS>BOND
     1    14    15    1
     2    15    10    1
     3    10    11   am
     4    11    12    1
     5    11    13    2
     6    10     1    1
     7     1     2   ar
     8     2     3   ar
     9     3     4   ar
    10     4    26    1
    11    26    27    1
    12     4     5   ar
    13     5     6   ar
    14     6     7   ar
    15     7    16    1
    16    16    17   am
    17    17    18    2
    18    17    20    1
    19    20    21   ar
    20    21    22   ar
    21    22    23   ar
    22    23    24   ar
    23    24    25    1
    24     7     8   ar
    25     8     9   ar
    26     9     1   ar
    27     9     5   ar
    28    24    20   ar
    29    16    19    1
@<TRIPOS>MOLECULE
*****
 27 29 0 0 0
SMALL
GASTEIGER

@<TRIPOS>ATOM
      1 C          61.4669   86.2721    9.6304 C.ar    1  UNL1        0.0615
      2 C          60.4359   85.9991    8.5757 C.ar    1  UNL1        0.0186
      3 C          59.6848   87.1362    7.9489 C.ar    1  UNL1        0.0398
      4 C          59.9648   88.5464    8.3768 C.ar    1  UNL1        0.1568
      5 C          60.9958   88.8194    9.4315 C.ar    1  UNL1        0.1242
      6 N          61.4835   90.0950   10.0519 N.ar    1  UNL1       -0.2208
      7 C          62.5360   89.7463   11.0621 C.ar    1  UNL1        0.1659
      8 S          62.6988   88.2551   11.0661 S.2     1  UNL1       -0.0500
      9 C          61.7469   87.6823   10.0583 C.ar    1  UNL1        0.0664
     10 N          62.2179   85.1350   10.2572 N.am    1  UNL1       -0.2581
     11 C          63.1857   84.3333    9.4381 C.2     1  UNL1        0.2298
     12 C          63.9368   83.1963   10.0648 C.3     1  UNL1        0.0952
     13 O          63.4023   84.6689    7.9922 O.2     1  UNL1       -0.2745
     14 C          63.0601   85.1236   12.7149 C.3     1  UNL1        0.0237
     15 C          62.0013   84.7995   11.7030 C.3     1  UNL1        0.0983
     16 N          63.2930   90.7180   11.9181 N.am    1  UNL1       -0.2594
     17 C          63.9372   90.2532   13.1904 C.2     1  UNL1        0.2683
     18 O          63.8246   88.8166   13.6069 O.2     1  UNL1       -0.2681
     19 H          63.3669   91.6610   11.6448 H       1  UNL1        0.1571
     20 C          64.6941   91.2250   14.0464 C.ar    1  UNL1        0.1330
     21 C          65.7595   92.1704   13.5761 C.ar    1  UNL1        0.0458
     22 C          66.2423   92.9517   14.7620 C.ar    1  UNL1        0.1218
     23 N          65.4753   92.4893   15.9653 N.ar    1  UNL1       -0.1675
     24 N          64.5184   91.4221   15.5230 N.ar    1  UNL1       -0.2443
     25 C          63.5551   90.6820   16.4028 C.3     1  UNL1        0.1539
     26 O          59.2136   89.6835    7.7499 O.3     1  UNL1       -0.4699
     27 C          59.2023   89.8432    6.2585 C.3     1  UNL1        0.2525
@<TRIPOS>BOND
     1    14    15    1
     2    15    10    1
     3    10    11   am
     4    11    12    1
     5    11    13    2
     6    10     1    1
     7     1     2   ar
     8     2     3   ar
     9     3     4   ar
    10     4    26    1
    11    26    27    1
    12     4     5   ar
    13     5     6   ar
    14     6     7   ar
    15     7    16    1
    16    16    17   am
    17    17    18    2
    18    17    20    1
    19    20    21   ar
    20    21    22   ar
    21    22    23   ar
    22    23    24   ar
    23    24    25    1
    24     7     8   ar
    25     8     9   ar
    26     9     1   ar
    27     9     5   ar
    28    24    20   ar
    29    16    19    1
@<TRIPOS>MOLECULE
*****
 27 29 0 0 0
SMALL
GASTEIGER

@<TRIPOS>ATOM
      1 C          62.5129   85.7222   11.8685 C.ar    1  UNL1        0.0615
      2 C          61.4593   85.6014   10.8078 C.ar    1  UNL1        0.0186
      3 C          60.8353   86.8353   10.2264 C.ar    1  UNL1        0.0398
      4 C          61.2649   88.1902   10.7058 C.ar    1  UNL1        0.1568
      5 C          62.3186   88.3110   11.7666 C.ar    1  UNL1        0.1242
      6 N          62.9402   89.5027   12.4326 N.ar    1  UNL1       -0.2208
      7 C          63.9484   89.0052   13.4256 C.ar    1  UNL1        0.1659
      8 S          63.9499   87.5061   13.3732 S.2     1  UNL1       -0.0500
      9 C          62.9426   87.0771   12.3479 C.ar    1  UNL1        0.0664
     10 N          63.1369   84.4883   12.4498 N.am    1  UNL1       -0.2581
     11 C          62.7431   84.0231   13.8205 C.2     1  UNL1        0.2298
     12 C          63.3671   82.7892   14.4019 C.3     1  UNL1        0.0952
     13 O          61.7253   84.7921   14.6097 O.2     1  UNL1       -0.2745
     14 C          63.8748   83.3503   10.2339 C.3     1  UNL1        0.0237
     15 C          64.1547   83.7194   11.6606 C.3     1  UNL1        0.0983
     16 N          64.8047   89.8572   14.3148 N.am    1  UNL1       -0.2594
     17 C          65.4320   91.1089   13.7766 C.2     1  UNL1        0.2683
     18 O          65.2029   91.5087   12.3491 O.2     1  UNL1       -0.2681
     19 H          64.9551   89.5948   15.2517 H       1  UNL1        0.1571
     20 C          66.2884   91.9608   14.6659 C.ar    1  UNL1        0.1330
     21 C          67.6722   92.4481   14.3537 C.ar    1  UNL1        0.0458
     22 C          68.1502   93.2635   15.5184 C.ar    1  UNL1        0.1218
     23 N          67.0619   93.2802   16.5505 N.ar    1  UNL1       -0.1675
     24 N          65.9111   92.4751   16.0235 N.ar    1  UNL1       -0.2443
     25 C          64.6114   92.2276   16.7302 C.3     1  UNL1        0.1539
     26 O          60.6408   89.4241   10.1244 O.3     1  UNL1       -0.4699
     27 C          59.8018   90.3185   10.9882 C.3     1  UNL1        0.2525
@<TRIPOS>BOND
     1    14    15    1
     2    15    10    1
     3    10    11   am
     4    11    12    1
     5    11    13    2
     6    10     1    1
     7     1     2   ar
     8     2     3   ar
     9     3     4   ar
    10     4    26    1
    11    26    27    1
    12     4     5   ar
    13     5     6   ar
    14     6     7   ar
    15     7    16    1
    16    16    17   am
    17    17    18    2
    18    17    20    1
    19    20    21   ar
    20    21    22   ar
    21    22    23   ar
    22    23    24   ar
    23    24    25    1
    24     7     8   ar
    25     8     9   ar
    26     9     1   ar
    27     9     5   ar
    28    24    20   ar
    29    16    19    1
@<TRIPOS>MOLECULE
*****
 27 29 0 0 0
SMALL
GASTEIGER

@<TRIPOS>ATOM
      1 C          63.6877   83.7264   13.6314 C.ar    1  UNL1        0.0615
      2 C          64.2467   83.9197   15.0098 C.ar    1  UNL1        0.0186
      3 C          64.3828   85.3016   15.5770 C.ar    1  UNL1        0.0398
      4 C          63.9600   86.4903   14.7657 C.ar    1  UNL1        0.1568
      5 C          63.4011   86.2971   13.3872 C.ar    1  UNL1        0.1242
      6 N          62.9041   87.2707   12.3601 N.ar    1  UNL1       -0.2208
      7 C          62.4608   86.4905   11.1581 C.ar    1  UNL1        0.1659
      8 S          62.6838   85.0346   11.4424 S.2     1  UNL1       -0.0500
      9 C          63.2649   84.9151   12.8200 C.ar    1  UNL1        0.0664
     10 N          63.5515   82.3444   13.0642 N.am    1  UNL1       -0.2581
     11 C          62.4677   81.4336   13.5602 C.2     1  UNL1        0.2298
     12 C          62.3315   80.0517   12.9931 C.3     1  UNL1        0.0952
     13 O          61.5202   81.9049   14.6233 O.2     1  UNL1       -0.2745
     14 C          64.1940   82.1334   10.5557 C.3     1  UNL1        0.0237
     15 C          64.4991   81.8733   12.0012 C.3     1  UNL1        0.0983
     16 N          61.8940   87.0652    9.8938 N.am    1  UNL1       -0.2594
     17 C          60.6468   87.8973    9.9413 C.2     1  UNL1        0.2683
     18 O          59.9665   88.1547   11.2531 O.2     1  UNL1       -0.2681
     19 H          62.3405   86.8963    9.0328 H       1  UNL1        0.1571
     20 C          60.0801   88.4719    8.6769 C.ar    1  UNL1        0.1330
     21 C          60.0840   89.9204    8.2875 C.ar    1  UNL1        0.0458
     22 C          59.4162   90.0426    6.9499 C.ar    1  UNL1        0.1218
     23 N          58.9996   88.6696    6.5126 N.ar    1  UNL1       -0.1675
     24 N          59.4099   87.6988    7.5800 N.ar    1  UNL1       -0.2443
     25 C          59.1889   86.2154    7.5549 C.3     1  UNL1        0.1539
     26 O          64.0963   87.8723   15.3329 O.3     1  UNL1       -0.4699
     27 C          63.3120   88.2641   16.5500 C.3     1  UNL1        0.2525
@<TRIPOS>BOND
     1    14    15    1
     2    15    10    1
     3    10    11   am
     4    11    12    1
     5    11    13    2
     6    10     1    1
     7     1     2   ar
     8     2     3   ar
     9     3     4   ar
    10     4    26    1
    11    26    27    1
    12     4     5   ar
    13     5     6   ar
    14     6     7   ar
    15     7    16    1
    16    16    17   am
    17    17    18    2
    18    17    20    1
    19    20    21   ar
    20    21    22   ar
    21    22    23   ar
    22    23    24   ar
    23    24    25    1
    24     7     8   ar
    25     8     9   ar
    26     9     1   ar
    27     9     5   ar
    28    24    20   ar
    29    16    19    1
@<TRIPOS>MOLECULE
*****
 27 29 0 0 0
SMALL
GASTEIGER

@<TRIPOS>ATOM
      1 C          63.9961   90.5243   12.8449 C.ar    1  UNL1        0.0615
      2 C          63.6070   91.5696   11.8420 C.ar    1  UNL1        0.0186
      3 C          62.7669   91.1961   10.6569 C.ar    1  UNL1        0.0398
      4 C          62.3157   89.7772   10.4747 C.ar    1  UNL1        0.1568
      5 C          62.7048   88.7318   11.4776 C.ar    1  UNL1        0.1242
      6 N          62.4110   87.2633   11.5620 N.ar    1  UNL1       -0.2208
      7 C          63.0697   86.7293   12.7993 C.ar    1  UNL1        0.1659
      8 S          63.7705   87.8677   13.4796 S.2     1  UNL1       -0.0500
      9 C          63.5450   89.1054   12.6627 C.ar    1  UNL1        0.0664
     10 N          64.8363   90.8979   14.0300 N.am    1  UNL1       -0.2581
     11 C          66.1416   91.6094   13.8296 C.2     1  UNL1        0.2298
     12 C          66.9818   91.9830   15.0146 C.3     1  UNL1        0.0952
     13 O          66.6065   91.9473   12.4440 O.2     1  UNL1       -0.2745
     14 C          63.9717   91.6544   16.3603 C.3     1  UNL1        0.0237
     15 C          64.3714   90.5599   15.4155 C.3     1  UNL1        0.0983
     16 N          63.0339   85.3065   13.2732 N.am    1  UNL1       -0.2594
     17 C          63.0461   84.1841   12.2782 C.2     1  UNL1        0.2683
     18 O          63.0942   84.4843   10.8094 O.2     1  UNL1       -0.2681
     19 H          63.0023   85.1095   14.2372 H       1  UNL1        0.1571
     20 C          63.0103   82.7614   12.7522 C.ar    1  UNL1        0.1330
     21 C          62.5259   81.5812   11.9634 C.ar    1  UNL1        0.0458
     22 C          62.6689   80.3595   12.8219 C.ar    1  UNL1        0.1218
     23 N          63.2416   80.7847   14.1415 N.ar    1  UNL1       -0.1675
     24 N          63.4526   82.2692   14.0984 N.ar    1  UNL1       -0.2443
     25 C          64.0083   83.1133   15.2068 C.3     1  UNL1        0.1539
     26 O          61.4754   89.4037    9.2895 O.3     1  UNL1       -0.4699
     27 C          60.0651   88.9333    9.4884 C.3     1  UNL1        0.2525
@<TRIPOS>BOND
     1    14    15    1
     2    15    10    1
     3    10    11   am
     4    11    12    1
     5    11    13    2
     6    10     1    1
     7     1     2   ar
     8     2     3   ar
     9     3     4   ar
    10     4    26    1
    11    26    27    1
    12     4     5   ar
    13     5     6   ar
    14     6     7   ar
    15     7    16    1
    16    16    17   am
    17    17    18    2
    18    17    20    1
    19    20    21   ar
    20    21    22   ar
    21    22    23   ar
    22    23    24   ar
    23    24    25    1
    24     7     8   ar
    25     8     9   ar
    26     9     1   ar
    27     9     5   ar
    28    24    20   ar
    29    16    19    1
@<TRIPOS>MOLECULE
*****
 27 29 0 0 0
SMALL
GASTEIGER

@<TRIPOS>ATOM
      1 C          62.2605   89.8241   11.5480 C.ar    1  UNL1        0.0615
      2 C          61.4486   90.8166   10.7697 C.ar    1  UNL1        0.0186
      3 C          60.4670   90.3400    9.7405 C.ar    1  UNL1        0.0398
      4 C          60.2973   88.8709    9.4895 C.ar    1  UNL1        0.1568
      5 C          61.1092   87.8784   10.2678 C.ar    1  UNL1        0.1242
      6 N          61.1585   86.3795   10.2392 N.ar    1  UNL1       -0.2208
      7 C          62.1706   85.9297   11.2508 C.ar    1  UNL1        0.1659
      8 S          62.7468   87.1506   11.9046 S.2     1  UNL1       -0.0500
      9 C          62.0908   88.3550   11.2970 C.ar    1  UNL1        0.0664
     10 N          63.2422   90.3007   12.5772 N.am    1  UNL1       -0.2581
     11 C          64.3171   91.2743   12.1942 C.2     1  UNL1        0.2298
     12 C          65.2987   91.7509   13.2233 C.3     1  UNL1        0.0952
     13 O          64.4103   91.7712   10.7819 O.2     1  UNL1       -0.2745
     14 C          64.2361   88.9374   14.5529 C.3     1  UNL1        0.0237
     15 C          63.1488   89.8037   13.9894 C.3     1  UNL1        0.0983
     16 N          62.5414   84.5085   11.5553 N.am    1  UNL1       -0.2594
     17 C          62.4266   83.9873   12.9571 C.2     1  UNL1        0.2683
     18 O          61.9410   84.8871   14.0545 O.2     1  UNL1       -0.2681
     19 H          62.8601   83.9178   10.8350 H       1  UNL1        0.1571
     20 C          62.7975   82.5660   13.2615 C.ar    1  UNL1        0.1330
     21 C          62.2680   81.3480   12.5644 C.ar    1  UNL1        0.0458
     22 C          62.9063   80.1426   13.1885 C.ar    1  UNL1        0.1218
     23 N          63.8301   80.6155   14.2714 N.ar    1  UNL1       -0.1675
     24 N          63.7629   82.1134   14.3165 N.ar    1  UNL1       -0.2443
     25 C          64.5270   83.0025   15.2523 C.3     1  UNL1        0.1539
     26 O          59.3156   88.3944    8.4602 O.3     1  UNL1       -0.4699
     27 C          59.3386   88.9740    7.0770 C.3     1  UNL1        0.2525
@<TRIPOS>BOND
     1    14    15    1
     2    15    10    1
     3    10    11   am
     4    11    12    1
     5    11    13    2
     6    10     1    1
     7     1     2   ar
     8     2     3   ar
     9     3     4   ar
    10     4    26    1
    11    26    27    1
    12     4     5   ar
    13     5     6   ar
    14     6     7   ar
    15     7    16    1
    16    16    17   am
    17    17    18    2
    18    17    20    1
    19    20    21   ar
    20    21    22   ar
    21    22    23   ar
    22    23    24   ar
    23    24    25    1
    24     7     8   ar
    25     8     9   ar
    26     9     1   ar
    27     9     5   ar
    28    24    20   ar
    29    16    19    1
@<TRIPOS>MOLECULE
*****
 27 29 0 0 0
SMALL
GASTEIGER

@<TRIPOS>ATOM
      1 C          64.9238   91.2849   14.3533 C.ar    1  UNL1        0.0615
      2 C          66.1908   92.0339   14.6421 C.ar    1  UNL1        0.0186
      3 C          66.9183   92.7332   13.5324 C.ar    1  UNL1        0.0398
      4 C          66.3787   92.6835   12.1336 C.ar    1  UNL1        0.1568
      5 C          65.1117   91.9344   11.8447 C.ar    1  UNL1        0.1242
      6 N          64.3445   91.7119   10.5751 N.ar    1  UNL1       -0.2208
      7 C          63.1429   90.8750   10.9003 C.ar    1  UNL1        0.1659
      8 S          63.1674   90.5804   12.3709 S.2     1  UNL1       -0.0500
      9 C          64.3842   91.2351   12.9546 C.ar    1  UNL1        0.0664
     10 N          64.1963   90.5855   15.4631 N.am    1  UNL1       -0.2581
     11 C          64.0138   89.0972   15.4194 C.2     1  UNL1        0.2298
     12 C          63.2864   88.3979   16.5292 C.3     1  UNL1        0.0952
     13 O          64.5588   88.3085   14.2658 O.2     1  UNL1       -0.2745
     14 C          64.4255   92.5378   17.1620 C.3     1  UNL1        0.0237
     15 C          63.6514   91.3744   16.6167 C.3     1  UNL1        0.0983
     16 N          62.0998   90.4138    9.9260 N.am    1  UNL1       -0.2594
     17 C          61.7096   88.9664    9.8742 C.2     1  UNL1        0.2683
     18 O          62.3625   87.9801   10.7968 O.2     1  UNL1       -0.2681
     19 H          61.6713   91.0611    9.3205 H       1  UNL1        0.1571
     20 C          60.6665   88.5053    8.8999 C.ar    1  UNL1        0.1330
     21 C          59.7927   89.3887    8.0599 C.ar    1  UNL1        0.0458
     22 C          58.9003   88.5091    7.2354 C.ar    1  UNL1        0.1218
     23 N          59.2226   87.0819    7.5657 N.ar    1  UNL1       -0.1675
     24 N          60.3143   87.0795    8.5945 N.ar    1  UNL1       -0.2443
     25 C          60.9432   85.8647    9.2099 C.3     1  UNL1        0.1539
     26 O          67.1063   93.3829   11.0238 O.3     1  UNL1       -0.4699
     27 C          66.5941   94.6913   10.4988 C.3     1  UNL1        0.2525
@<TRIPOS>BOND
     1    14    15    1
     2    15    10    1
     3    10    11   am
     4    11    12    1
     5    11    13    2
     6    10     1    1
     7     1     2   ar
     8     2     3   ar
     9     3     4   ar
    10     4    26    1
    11    26    27    1
    12     4     5   ar
    13     5     6   ar
    14     6     7   ar
    15     7    16    1
    16    16    17   am
    17    17    18    2
    18    17    20    1
    19    20    21   ar
    20    21    22   ar
    21    22    23   ar
    22    23    24   ar
    23    24    25    1
    24     7     8   ar
    25     8     9   ar
    26     9     1   ar
    27     9     5   ar
    28    24    20   ar
    29    16    19    1
