@<TRIPOS>MOLECULE
*****
 35 38 0 0 0
SMALL
GASTEIGER

@<TRIPOS>ATOM
      1 C          64.0358   88.1053   14.0889 C.ar    1  UNL1        0.2036
      2 N          63.6262   87.6220   15.4485 N.ar    1  UNL1       -0.0556
      3 O          63.2610   86.1717   15.3343 O.2     1  UNL1       -0.3324
      4 C          63.4449   85.7585   13.9041 C.ar    1  UNL1        0.2600
      5 N          63.9238   86.9536   13.1344 N.ar    1  UNL1       -0.1870
      6 C          65.8014   94.6264   11.8550 C.2     1  UNL1        0.2297
      7 O          65.0102   94.2415   10.6402 O.2     1  UNL1       -0.2745
      8 N          65.9498   93.6584   12.9912 N.am    1  UNL1       -0.2586
      9 C          66.7069   93.9012   14.2631 C.3     1  UNL1        0.1029
     10 C          66.5921   92.6705   15.1129 C.3     1  UNL1        0.0495
     11 C          65.7641   91.6671   14.3662 C.ar    1  UNL1       -0.0067
     12 C          65.3204   90.2763   14.7109 C.ar    1  UNL1        0.0002
     13 C          64.4796   89.4961   13.7442 C.ar    1  UNL1        0.0389
     14 C          64.0827   90.1067   12.4329 C.ar    1  UNL1        0.0044
     15 C          64.5264   91.4975   12.0882 C.ar    1  UNL1        0.0147
     16 C          65.3671   92.2776   13.0549 C.ar    1  UNL1        0.0499
     17 C          66.4443   95.9794   11.9336 C.3     1  UNL1        0.0915
     18 C          66.6501   96.7856   10.6855 C.3     1  UNL1        0.0513
     19 O          68.1786   94.9340    9.6928 O.co2   1  UNL1       -0.5492
     20 C          67.3698   96.1846    9.5147 C.2     1  UNL1        0.0508
     21 O          67.2806   96.8343    8.1656 O.co2   1  UNL1       -0.5492
     22 C          63.1940   84.3906   13.3423 C.ar    1  UNL1        0.0560
     23 C          63.8755   83.9632   12.0762 C.ar    1  UNL1        0.0086
     24 C          63.6246   82.5953   11.5143 C.ar    1  UNL1        0.0715
     25 C          62.6923   81.6546   12.2186 C.ar    1  UNL1        0.0077
     26 C          62.0108   82.0819   13.4847 C.ar    1  UNL1        0.0715
     27 C          62.2617   83.4499   14.0465 C.ar    1  UNL1        0.0086
     28 C          64.3061   82.1679   10.2482 C.3     1  UNL1        0.4186
     29 F          64.9876   81.7407    8.9821 F       1  UNL1       -0.1659
     30 F          63.3952   80.9796   10.1590 F       1  UNL1       -0.1659
     31 F          65.2170   83.3564   10.3375 F       1  UNL1       -0.1659
     32 C          61.0785   81.1413   14.1889 C.3     1  UNL1        0.4186
     33 F          60.1462   80.2007   14.8931 F       1  UNL1       -0.1659
     34 F          60.4871   82.2938   14.9453 F       1  UNL1       -0.1659
     35 F          61.6698   79.9888   13.4325 F       1  UNL1       -0.1659
@<TRIPOS>UNITY_ATOM_ATTR
19 1
charge -1
@<TRIPOS>BOND
     1    19    20   ar
     2    20    21   ar
     3    20    18    1
     4    18    17    1
     5    17     6    1
     6     6     7    2
     7     6     8   am
     8     8     9    1
     9     9    10    1
    10    10    11    1
    11    11    12   ar
    12    12    13   ar
    13    13     1    1
    14     1     2   ar
    15     2     3   ar
    16     3     4   ar
    17     4    22    1
    18    22    23   ar
    19    23    24   ar
    20    24    28    1
    21    28    29    1
    22    28    30    1
    23    28    31    1
    24    24    25   ar
    25    25    26   ar
    26    26    32    1
    27    32    33    1
    28    32    34    1
    29    32    35    1
    30    26    27   ar
    31     4     5   ar
    32    13    14   ar
    33    14    15   ar
    34    15    16   ar
    35    16     8    1
    36    16    11   ar
    37     5     1   ar
    38    27    22   ar
@<TRIPOS>MOLECULE
*****
 35 38 0 0 0
SMALL
GASTEIGER

@<TRIPOS>ATOM
      1 C          64.0032   88.0014   14.1172 C.ar    1  UNL1        0.2036
      2 N          63.5963   87.5129   15.4758 N.ar    1  UNL1       -0.0556
      3 O          63.2247   86.0647   15.3555 O.2     1  UNL1       -0.3324
      4 C          63.4019   85.6580   13.9226 C.ar    1  UNL1        0.2600
      5 N          63.8831   86.8550   13.1573 N.ar    1  UNL1       -0.1870
      6 C          65.7942   94.5236   11.9068 C.2     1  UNL1        0.2297
      7 O          65.0106   94.1421   10.6861 O.2     1  UNL1       -0.2745
      8 N          65.9334   93.5533   13.0423 N.am    1  UNL1       -0.2586
      9 C          66.6823   93.7926   14.3197 C.3     1  UNL1        0.1029
     10 C          66.5598   92.5606   15.1665 C.3     1  UNL1        0.0495
     11 C          65.7353   91.5599   14.4124 C.ar    1  UNL1       -0.0067
     12 C          65.2870   90.1692   14.7517 C.ar    1  UNL1        0.0002
     13 C          64.4515   89.3921   13.7780 C.ar    1  UNL1        0.0389
     14 C          64.0644   90.0057   12.4651 C.ar    1  UNL1        0.0044
     15 C          64.5127   91.3963   12.1259 C.ar    1  UNL1        0.0147
     16 C          65.3481   92.1734   13.0995 C.ar    1  UNL1        0.0499
     17 C          66.4387   95.8754   11.9921 C.3     1  UNL1        0.0915
     18 C          66.5780   96.7190   10.7597 C.3     1  UNL1        0.0513
     19 O          68.2081   94.9939    9.7030 O.co2   1  UNL1       -0.5492
     20 C          67.3042   96.1826    9.5619 C.2     1  UNL1        0.0508
     21 O          67.1265   96.8349    8.2229 O.co2   1  UNL1       -0.5492
     22 C          63.1434   84.2940   13.3547 C.ar    1  UNL1        0.0560
     23 C          62.2010   83.3579   14.0514 C.ar    1  UNL1        0.0086
     24 C          61.9425   81.9938   13.4835 C.ar    1  UNL1        0.0715
     25 C          62.6265   81.5659   12.2190 C.ar    1  UNL1        0.0077
     26 C          63.5689   82.5020   11.5223 C.ar    1  UNL1        0.0715
     27 C          63.8274   83.8660   12.0902 C.ar    1  UNL1        0.0086
     28 C          61.0000   81.0577   14.1802 C.3     1  UNL1        0.4186
     29 F          60.0576   80.1214   14.8769 F       1  UNL1       -0.1659
     30 F          60.3762   82.2186   14.8965 F       1  UNL1       -0.1659
     31 F          61.6238   79.8966   13.4639 F       1  UNL1       -0.1659
     32 C          64.2529   82.0741   10.2577 C.3     1  UNL1        0.4186
     33 F          64.9369   81.6462    8.9933 F       1  UNL1       -0.1659
     34 F          65.0726   83.3302   10.2760 F       1  UNL1       -0.1659
     35 F          63.4333   80.8179   10.2395 F       1  UNL1       -0.1659
@<TRIPOS>UNITY_ATOM_ATTR
19 1
charge -1
@<TRIPOS>BOND
     1    19    20   ar
     2    20    21   ar
     3    20    18    1
     4    18    17    1
     5    17     6    1
     6     6     7    2
     7     6     8   am
     8     8     9    1
     9     9    10    1
    10    10    11    1
    11    11    12   ar
    12    12    13   ar
    13    13     1    1
    14     1     2   ar
    15     2     3   ar
    16     3     4   ar
    17     4    22    1
    18    22    23   ar
    19    23    24   ar
    20    24    28    1
    21    28    29    1
    22    28    30    1
    23    28    31    1
    24    24    25   ar
    25    25    26   ar
    26    26    32    1
    27    32    33    1
    28    32    34    1
    29    32    35    1
    30    26    27   ar
    31     4     5   ar
    32    13    14   ar
    33    14    15   ar
    34    15    16   ar
    35    16     8    1
    36    16    11   ar
    37     5     1   ar
    38    27    22   ar
@<TRIPOS>MOLECULE
*****
 35 38 0 0 0
SMALL
GASTEIGER

@<TRIPOS>ATOM
      1 C          63.9594   87.9892   14.6624 C.ar    1  UNL1        0.2036
      2 N          63.3422   88.6939   15.8339 N.ar    1  UNL1       -0.0556
      3 O          63.9029   90.0842   15.8865 O.2     1  UNL1       -0.3324
      4 C          64.8666   90.2387   14.7474 C.ar    1  UNL1        0.2600
      5 N          64.9015   88.9439   13.9909 N.ar    1  UNL1       -0.1870
      6 C          62.7011   81.1170   13.3126 C.2     1  UNL1        0.2297
      7 O          62.8576   80.9704   14.7971 O.2     1  UNL1       -0.2745
      8 N          62.8387   82.4671   12.6736 N.am    1  UNL1       -0.2586
      9 C          62.7091   82.7669   11.2096 C.3     1  UNL1        0.1029
     10 C          62.9205   84.2395   11.0176 C.3     1  UNL1        0.0495
     11 C          63.1807   84.8498   12.3630 C.ar    1  UNL1       -0.0067
     12 C          63.4571   86.2614   12.7883 C.ar    1  UNL1        0.0002
     13 C          63.6829   86.5775   14.2370 C.ar    1  UNL1        0.0389
     14 C          63.6324   85.4821   15.2605 C.ar    1  UNL1        0.0044
     15 C          63.3560   84.0705   14.8352 C.ar    1  UNL1        0.0147
     16 C          63.1302   83.7543   13.3864 C.ar    1  UNL1        0.0499
     17 C          62.4069   79.9134   12.4670 C.3     1  UNL1        0.0915
     18 C          63.1785   79.6787   11.2023 C.3     1  UNL1        0.0513
     19 O          62.0303   79.1121    8.9416 O.co2   1  UNL1       -0.5492
     20 C          62.6977   78.6638   10.2079 C.2     1  UNL1        0.0508
     21 O          62.8844   77.2005   10.4799 O.co2   1  UNL1       -0.5492
     22 C          65.6567   91.4716   14.4219 C.ar    1  UNL1        0.0560
     23 C          66.7772   91.9032   15.3208 C.ar    1  UNL1        0.0086
     24 C          67.5673   93.1361   14.9954 C.ar    1  UNL1        0.0715
     25 C          67.2368   93.9372   13.7711 C.ar    1  UNL1        0.0077
     26 C          66.1162   93.5056   12.8722 C.ar    1  UNL1        0.0715
     27 C          65.3262   92.2727   13.1976 C.ar    1  UNL1        0.0086
     28 C          68.6878   93.5677   15.8943 C.3     1  UNL1        0.4186
     29 F          69.8084   93.9992   16.7933 F       1  UNL1       -0.1659
     30 F          68.3639   95.0041   15.6085 F       1  UNL1       -0.1659
     31 F          69.0118   92.1312   16.1802 F       1  UNL1       -0.1659
     32 C          65.7857   94.3067   11.6479 C.3     1  UNL1        0.4186
     33 F          65.4552   95.1079   10.4237 F       1  UNL1       -0.1659
     34 F          66.1918   95.5628   12.3602 F       1  UNL1       -0.1659
     35 F          65.3796   93.0507   10.9356 F       1  UNL1       -0.1659
@<TRIPOS>UNITY_ATOM_ATTR
19 1
charge -1
@<TRIPOS>BOND
     1    19    20   ar
     2    20    21   ar
     3    20    18    1
     4    18    17    1
     5    17     6    1
     6     6     7    2
     7     6     8   am
     8     8     9    1
     9     9    10    1
    10    10    11    1
    11    11    12   ar
    12    12    13   ar
    13    13     1    1
    14     1     2   ar
    15     2     3   ar
    16     3     4   ar
    17     4    22    1
    18    22    23   ar
    19    23    24   ar
    20    24    28    1
    21    28    29    1
    22    28    30    1
    23    28    31    1
    24    24    25   ar
    25    25    26   ar
    26    26    32    1
    27    32    33    1
    28    32    34    1
    29    32    35    1
    30    26    27   ar
    31     4     5   ar
    32    13    14   ar
    33    14    15   ar
    34    15    16   ar
    35    16     8    1
    36    16    11   ar
    37     5     1   ar
    38    27    22   ar
@<TRIPOS>MOLECULE
*****
 35 38 0 0 0
SMALL
GASTEIGER

@<TRIPOS>ATOM
      1 C          63.9464   87.9830   14.6718 C.ar    1  UNL1        0.2036
      2 N          63.3197   88.6943   15.8342 N.ar    1  UNL1       -0.0556
      3 O          63.8806   90.0846   15.8841 O.2     1  UNL1       -0.3324
      4 C          64.8540   90.2326   14.7523 C.ar    1  UNL1        0.2600
      5 N          64.8946   88.9337   14.0031 N.ar    1  UNL1       -0.1870
      6 C          62.6887   81.1055   13.3491 C.2     1  UNL1        0.2297
      7 O          62.8168   80.9693   14.8373 O.2     1  UNL1       -0.2745
      8 N          62.8431   82.4503   12.7029 N.am    1  UNL1       -0.2586
      9 C          62.7420   82.7398   11.2345 C.3     1  UNL1        0.1029
     10 C          62.9622   84.2101   11.0358 C.3     1  UNL1        0.0495
     11 C          63.1994   84.8294   12.3812 C.ar    1  UNL1       -0.0067
     12 C          63.4729   86.2432   12.8013 C.ar    1  UNL1        0.0002
     13 C          63.6728   86.5692   14.2517 C.ar    1  UNL1        0.0389
     14 C          63.5992   85.4816   15.2820 C.ar    1  UNL1        0.0044
     15 C          63.3257   84.0678   14.8619 C.ar    1  UNL1        0.0147
     16 C          63.1258   83.7418   13.4116 C.ar    1  UNL1        0.0499
     17 C          62.4060   79.8967   12.5069 C.3     1  UNL1        0.0915
     18 C          63.1693   79.6735   11.2351 C.3     1  UNL1        0.0513
     19 O          62.8567   77.2020   10.4976 O.co2   1  UNL1       -0.5492
     20 C          62.6816   78.6683   10.2343 C.2     1  UNL1        0.0508
     21 O          62.0187   79.1295    8.9702 O.co2   1  UNL1       -0.5492
     22 C          65.6474   91.4633   14.4270 C.ar    1  UNL1        0.0560
     23 C          65.3301   92.2559   13.1936 C.ar    1  UNL1        0.0086
     24 C          66.1235   93.4866   12.8683 C.ar    1  UNL1        0.0715
     25 C          67.2342   93.9247   13.7763 C.ar    1  UNL1        0.0077
     26 C          67.5515   93.1321   15.0097 C.ar    1  UNL1        0.0715
     27 C          66.7581   91.9014   15.3350 C.ar    1  UNL1        0.0086
     28 C          65.8062   94.2791   11.6350 C.3     1  UNL1        0.4186
     29 F          65.4889   95.0716   10.4015 F       1  UNL1       -0.1659
     30 F          66.1888   95.5420   12.3480 F       1  UNL1       -0.1659
     31 F          65.4235   93.0161   10.9218 F       1  UNL1       -0.1659
     32 C          68.6621   93.5703   15.9177 C.3     1  UNL1        0.4186
     33 F          69.7727   94.0084   16.8256 F       1  UNL1       -0.1659
     34 F          68.9859   92.1358   16.2137 F       1  UNL1       -0.1659
     35 F          68.3383   95.0047   15.6216 F       1  UNL1       -0.1659
@<TRIPOS>UNITY_ATOM_ATTR
19 1
charge -1
@<TRIPOS>BOND
     1    19    20   ar
     2    20    21   ar
     3    20    18    1
     4    18    17    1
     5    17     6    1
     6     6     7    2
     7     6     8   am
     8     8     9    1
     9     9    10    1
    10    10    11    1
    11    11    12   ar
    12    12    13   ar
    13    13     1    1
    14     1     2   ar
    15     2     3   ar
    16     3     4   ar
    17     4    22    1
    18    22    23   ar
    19    23    24   ar
    20    24    28    1
    21    28    29    1
    22    28    30    1
    23    28    31    1
    24    24    25   ar
    25    25    26   ar
    26    26    32    1
    27    32    33    1
    28    32    34    1
    29    32    35    1
    30    26    27   ar
    31     4     5   ar
    32    13    14   ar
    33    14    15   ar
    34    15    16   ar
    35    16     8    1
    36    16    11   ar
    37     5     1   ar
    38    27    22   ar
@<TRIPOS>MOLECULE
*****
 35 38 0 0 0
SMALL
GASTEIGER

@<TRIPOS>ATOM
      1 C          63.3236   88.5190   12.6107 C.ar    1  UNL1        0.2036
      2 N          62.2107   89.4356   12.1968 N.ar    1  UNL1       -0.0556
      3 O          62.7201   90.8446   12.2677 O.2     1  UNL1       -0.3324
      4 C          64.1479   90.7989   12.7255 C.ar    1  UNL1        0.2600
      5 N          64.5208   89.3615   12.9375 N.ar    1  UNL1       -0.1870
      6 C          62.6688   81.4385   12.3453 C.2     1  UNL1        0.2297
      7 O          62.0136   81.7171   11.0252 O.2     1  UNL1       -0.2745
      8 N          63.1806   82.5728   13.1829 N.am    1  UNL1       -0.2586
      9 C          63.8545   82.4494   14.5173 C.3     1  UNL1        0.1029
     10 C          64.1987   83.8300   14.9921 C.3     1  UNL1        0.0495
     11 C          63.7375   84.8066   13.9512 C.ar    1  UNL1       -0.0067
     12 C          63.8093   86.3030   13.8771 C.ar    1  UNL1        0.0002
     13 C          63.2518   87.0225   12.6848 C.ar    1  UNL1        0.0389
     14 C          62.6226   86.2455   11.5666 C.ar    1  UNL1        0.0044
     15 C          62.5508   84.7491   11.6407 C.ar    1  UNL1        0.0147
     16 C          63.1083   84.0296   12.8330 C.ar    1  UNL1        0.0499
     17 C          62.8123   80.0255   12.8280 C.3     1  UNL1        0.0915
     18 C          61.8529   79.4787   13.8433 C.3     1  UNL1        0.0513
     19 O          60.7606   81.7149   14.5891 O.co2   1  UNL1       -0.5492
     20 C          60.6339   80.2657   14.2232 C.2     1  UNL1        0.0508
     21 O          59.2880   79.6036   14.2371 O.co2   1  UNL1       -0.5492
     22 C          65.0451   91.9826   12.9347 C.ar    1  UNL1        0.0560
     23 C          65.1154   93.0631   11.8966 C.ar    1  UNL1        0.0086
     24 C          66.0126   94.2468   12.1057 C.ar    1  UNL1        0.0715
     25 C          66.8396   94.3501   13.3529 C.ar    1  UNL1        0.0077
     26 C          66.7693   93.2696   14.3910 C.ar    1  UNL1        0.0715
     27 C          65.8721   92.0859   14.1819 C.ar    1  UNL1        0.0086
     28 C          66.0829   95.3273   11.0676 C.3     1  UNL1        0.4186
     29 F          66.1531   96.4079   10.0296 F       1  UNL1       -0.1659
     30 F          66.1046   94.2875    9.9867 F       1  UNL1       -0.1659
     31 F          66.0611   96.3671   12.1485 F       1  UNL1       -0.1659
     32 C          67.5963   93.3728   15.6382 C.3     1  UNL1        0.4186
     33 F          68.4232   93.4761   16.8853 F       1  UNL1       -0.1659
     34 F          68.8122   93.6605   14.8082 F       1  UNL1       -0.1659
     35 F          66.3804   93.0852   16.4682 F       1  UNL1       -0.1659
@<TRIPOS>UNITY_ATOM_ATTR
19 1
charge -1
@<TRIPOS>BOND
     1    19    20   ar
     2    20    21   ar
     3    20    18    1
     4    18    17    1
     5    17     6    1
     6     6     7    2
     7     6     8   am
     8     8     9    1
     9     9    10    1
    10    10    11    1
    11    11    12   ar
    12    12    13   ar
    13    13     1    1
    14     1     2   ar
    15     2     3   ar
    16     3     4   ar
    17     4    22    1
    18    22    23   ar
    19    23    24   ar
    20    24    28    1
    21    28    29    1
    22    28    30    1
    23    28    31    1
    24    24    25   ar
    25    25    26   ar
    26    26    32    1
    27    32    33    1
    28    32    34    1
    29    32    35    1
    30    26    27   ar
    31     4     5   ar
    32    13    14   ar
    33    14    15   ar
    34    15    16   ar
    35    16     8    1
    36    16    11   ar
    37     5     1   ar
    38    27    22   ar
@<TRIPOS>MOLECULE
*****
 35 38 0 0 0
SMALL
GASTEIGER

@<TRIPOS>ATOM
      1 C          63.3124   88.4727   12.5720 C.ar    1  UNL1        0.2036
      2 N          62.2149   89.3800   12.1005 N.ar    1  UNL1       -0.0556
      3 O          62.7227   90.7903   12.1576 O.2     1  UNL1       -0.3324
      4 C          64.1341   90.7546   12.6644 C.ar    1  UNL1        0.2600
      5 N          64.4986   89.3223   12.9204 N.ar    1  UNL1       -0.1870
      6 C          62.6509   81.3890   12.4459 C.2     1  UNL1        0.2297
      7 O          62.0179   81.6404   11.1095 O.2     1  UNL1       -0.2745
      8 N          63.1507   82.5402   13.2675 N.am    1  UNL1       -0.2586
      9 C          63.8025   82.4442   14.6151 C.3     1  UNL1        0.1029
     10 C          64.1410   83.8342   15.0662 C.3     1  UNL1        0.0495
     11 C          63.6985   84.7891   13.9974 C.ar    1  UNL1       -0.0067
     12 C          63.7739   86.2835   13.8928 C.ar    1  UNL1        0.0002
     13 C          63.2371   86.9782   12.6766 C.ar    1  UNL1        0.0389
     14 C          62.6251   86.1785   11.5649 C.ar    1  UNL1        0.0044
     15 C          62.5498   84.6840   11.6695 C.ar    1  UNL1        0.0147
     16 C          63.0865   83.9894   12.8857 C.ar    1  UNL1        0.0499
     17 C          62.7843   79.9864   12.9607 C.3     1  UNL1        0.0915
     18 C          61.6671   79.3665   13.7466 C.3     1  UNL1        0.0513
     19 O          59.1403   79.6073   14.3012 O.co2   1  UNL1       -0.5492
     20 C          60.5107   80.2085   14.1980 C.2     1  UNL1        0.0508
     21 O          60.7247   81.6517   14.5463 O.co2   1  UNL1       -0.5492
     22 C          65.0246   91.9427   12.8776 C.ar    1  UNL1        0.0560
     23 C          65.8506   92.0465   14.1254 C.ar    1  UNL1        0.0086
     24 C          66.7411   93.2346   14.3386 C.ar    1  UNL1        0.0715
     25 C          66.8057   94.3188   13.3040 C.ar    1  UNL1        0.0077
     26 C          65.9797   94.2149   12.0562 C.ar    1  UNL1        0.0715
     27 C          65.0892   93.0269   11.8430 C.ar    1  UNL1        0.0086
     28 C          67.5670   93.3384   15.5864 C.3     1  UNL1        0.4186
     29 F          68.3928   93.4423   16.8343 F       1  UNL1       -0.1659
     30 F          68.7921   93.5803   14.7555 F       1  UNL1       -0.1659
     31 F          66.3418   93.0965   16.4174 F       1  UNL1       -0.1659
     32 C          66.0443   95.2991   11.0216 C.3     1  UNL1        0.4186
     33 F          66.1089   96.3832    9.9870 F       1  UNL1       -0.1659
     34 F          66.0831   94.2627    9.9379 F       1  UNL1       -0.1659
     35 F          66.0055   96.3355   12.1053 F       1  UNL1       -0.1659
@<TRIPOS>UNITY_ATOM_ATTR
19 1
charge -1
@<TRIPOS>BOND
     1    19    20   ar
     2    20    21   ar
     3    20    18    1
     4    18    17    1
     5    17     6    1
     6     6     7    2
     7     6     8   am
     8     8     9    1
     9     9    10    1
    10    10    11    1
    11    11    12   ar
    12    12    13   ar
    13    13     1    1
    14     1     2   ar
    15     2     3   ar
    16     3     4   ar
    17     4    22    1
    18    22    23   ar
    19    23    24   ar
    20    24    28    1
    21    28    29    1
    22    28    30    1
    23    28    31    1
    24    24    25   ar
    25    25    26   ar
    26    26    32    1
    27    32    33    1
    28    32    34    1
    29    32    35    1
    30    26    27   ar
    31     4     5   ar
    32    13    14   ar
    33    14    15   ar
    34    15    16   ar
    35    16     8    1
    36    16    11   ar
    37     5     1   ar
    38    27    22   ar
@<TRIPOS>MOLECULE
*****
 35 38 0 0 0
SMALL
GASTEIGER

@<TRIPOS>ATOM
      1 C          62.9384   87.9862   12.3771 C.ar    1  UNL1        0.2036
      2 N          61.7892   88.9056   12.0873 N.ar    1  UNL1       -0.0556
      3 O          62.2877   90.3167   12.1880 O.2     1  UNL1       -0.3324
      4 C          63.7451   90.2694   12.5402 C.ar    1  UNL1        0.2600
      5 N          64.1472   88.8291   12.6570 N.ar    1  UNL1       -0.1870
      6 C          62.7463   80.9030   11.7265 C.2     1  UNL1        0.2297
      7 O          62.8567   81.2030   10.2611 O.2     1  UNL1       -0.2745
      8 N          62.7157   82.0249   12.7216 N.am    1  UNL1       -0.2586
      9 C          62.6089   81.8800   14.2108 C.3     1  UNL1        0.1029
     10 C          62.6137   83.2543   14.8118 C.3     1  UNL1        0.0495
     11 C          62.7234   84.2486   13.6941 C.ar    1  UNL1       -0.0067
     12 C          62.7741   85.7477   13.6857 C.ar    1  UNL1        0.0002
     13 C          62.8878   86.4870   12.3855 C.ar    1  UNL1        0.0389
     14 C          62.9508   85.7272   11.0937 C.ar    1  UNL1        0.0044
     15 C          62.9002   84.2281   11.1021 C.ar    1  UNL1        0.0147
     16 C          62.7865   83.4888   12.4023 C.ar    1  UNL1        0.0499
     17 C          62.6666   79.4808   12.1970 C.3     1  UNL1        0.0915
     18 C          62.1364   78.4168   11.2822 C.3     1  UNL1        0.0513
     19 O          63.6350   78.4795    9.1608 O.co2   1  UNL1       -0.5492
     20 C          63.0585   77.7254   10.3222 C.2     1  UNL1        0.0508
     21 O          63.4041   76.2797   10.5237 O.co2   1  UNL1       -0.5492
     22 C          64.6427   91.4544   12.7403 C.ar    1  UNL1        0.0560
     23 C          64.8170   92.4577   11.6389 C.ar    1  UNL1        0.0086
     24 C          65.7146   93.6427   11.8391 C.ar    1  UNL1        0.0715
     25 C          66.4379   93.8245   13.1406 C.ar    1  UNL1        0.0077
     26 C          66.2635   92.8212   14.2420 C.ar    1  UNL1        0.0715
     27 C          65.3660   91.6362   14.0418 C.ar    1  UNL1        0.0086
     28 C          65.8889   94.6460   10.7377 C.3     1  UNL1        0.4186
     29 F          66.0633   95.6494    9.6364 F       1  UNL1       -0.1659
     30 F          65.8609   93.5396    9.7253 F       1  UNL1       -0.1659
     31 F          65.9170   95.7525   11.7502 F       1  UNL1       -0.1659
     32 C          66.9868   93.0029   15.5435 C.3     1  UNL1        0.4186
     33 F          67.7100   93.1846   16.8449 F       1  UNL1       -0.1659
     34 F          68.2025   93.4744   14.8021 F       1  UNL1       -0.1659
     35 F          65.7710   92.5314   16.2849 F       1  UNL1       -0.1659
@<TRIPOS>UNITY_ATOM_ATTR
19 1
charge -1
@<TRIPOS>BOND
     1    19    20   ar
     2    20    21   ar
     3    20    18    1
     4    18    17    1
     5    17     6    1
     6     6     7    2
     7     6     8   am
     8     8     9    1
     9     9    10    1
    10    10    11    1
    11    11    12   ar
    12    12    13   ar
    13    13     1    1
    14     1     2   ar
    15     2     3   ar
    16     3     4   ar
    17     4    22    1
    18    22    23   ar
    19    23    24   ar
    20    24    28    1
    21    28    29    1
    22    28    30    1
    23    28    31    1
    24    24    25   ar
    25    25    26   ar
    26    26    32    1
    27    32    33    1
    28    32    34    1
    29    32    35    1
    30    26    27   ar
    31     4     5   ar
    32    13    14   ar
    33    14    15   ar
    34    15    16   ar
    35    16     8    1
    36    16    11   ar
    37     5     1   ar
    38    27    22   ar
@<TRIPOS>MOLECULE
*****
 35 38 0 0 0
SMALL
GASTEIGER

@<TRIPOS>ATOM
      1 C          63.0144   87.6802   12.6028 C.ar    1  UNL1        0.2036
      2 N          61.8402   88.6129   12.5682 N.ar    1  UNL1       -0.0556
      3 O          62.3526   90.0102   12.7553 O.2     1  UNL1       -0.3324
      4 C          63.8435   89.9411   12.9055 C.ar    1  UNL1        0.2600
      5 N          64.2525   88.5010   12.8112 N.ar    1  UNL1       -0.1870
      6 C          62.8615   80.7012   11.2232 C.2     1  UNL1        0.2297
      7 O          63.0918   81.1466    9.8096 O.2     1  UNL1       -0.2745
      8 N          62.7520   81.7172   12.3213 N.am    1  UNL1       -0.2586
      9 C          62.5236   81.4237   13.7745 C.3     1  UNL1        0.1029
     10 C          62.4821   82.7302   14.5102 C.3     1  UNL1        0.0495
     11 C          62.6848   83.8312   13.5118 C.ar    1  UNL1       -0.0067
     12 C          62.7391   85.3228   13.6598 C.ar    1  UNL1        0.0002
     13 C          62.9602   86.1884   12.4549 C.ar    1  UNL1        0.0389
     14 C          63.1270   85.5624   11.1020 C.ar    1  UNL1        0.0044
     15 C          63.0727   84.0707   10.9541 C.ar    1  UNL1        0.0147
     16 C          62.8516   83.2051   12.1590 C.ar    1  UNL1        0.0499
     17 C          62.7407   79.2397   11.5389 C.3     1  UNL1        0.0915
     18 C          62.2996   78.2770   10.4765 C.3     1  UNL1        0.0513
     19 O          64.4707   77.4062    9.3460 O.co2   1  UNL1       -0.5492
     20 C          63.1908   77.1373   10.0805 C.2     1  UNL1        0.0508
     21 O          62.8020   75.7287   10.4191 O.co2   1  UNL1       -0.5492
     22 C          64.7637   91.1073   13.1134 C.ar    1  UNL1        0.0560
     23 C          65.6468   91.1590   14.3248 C.ar    1  UNL1        0.0086
     24 C          66.5670   92.3252   14.5327 C.ar    1  UNL1        0.0715
     25 C          66.6042   93.4395   13.5293 C.ar    1  UNL1        0.0077
     26 C          65.7211   93.3878   12.3179 C.ar    1  UNL1        0.0715
     27 C          64.8008   92.2216   12.1100 C.ar    1  UNL1        0.0086
     28 C          67.4501   92.3770   15.7441 C.3     1  UNL1        0.4186
     29 F          68.3333   92.4286   16.9555 F       1  UNL1       -0.1659
     30 F          67.2321   93.8579   15.8398 F       1  UNL1       -0.1659
     31 F          67.6682   90.8959   15.6484 F       1  UNL1       -0.1659
     32 C          65.7582   94.5021   11.3145 C.3     1  UNL1        0.4186
     33 F          65.7953   95.6164   10.3111 F       1  UNL1       -0.1659
     34 F          66.1180   95.4699   12.4026 F       1  UNL1       -0.1659
     35 F          65.3984   93.5343   10.2264 F       1  UNL1       -0.1659
@<TRIPOS>UNITY_ATOM_ATTR
19 1
charge -1
@<TRIPOS>BOND
     1    19    20   ar
     2    20    21   ar
     3    20    18    1
     4    18    17    1
     5    17     6    1
     6     6     7    2
     7     6     8   am
     8     8     9    1
     9     9    10    1
    10    10    11    1
    11    11    12   ar
    12    12    13   ar
    13    13     1    1
    14     1     2   ar
    15     2     3   ar
    16     3     4   ar
    17     4    22    1
    18    22    23   ar
    19    23    24   ar
    20    24    28    1
    21    28    29    1
    22    28    30    1
    23    28    31    1
    24    24    25   ar
    25    25    26   ar
    26    26    32    1
    27    32    33    1
    28    32    34    1
    29    32    35    1
    30    26    27   ar
    31     4     5   ar
    32    13    14   ar
    33    14    15   ar
    34    15    16   ar
    35    16     8    1
    36    16    11   ar
    37     5     1   ar
    38    27    22   ar
@<TRIPOS>MOLECULE
*****
 35 38 0 0 0
SMALL
GASTEIGER

@<TRIPOS>ATOM
      1 C          62.7377   88.9027   11.3935 C.ar    1  UNL1        0.2036
      2 N          61.3675   88.5680   10.8831 N.ar    1  UNL1       -0.0556
      3 O          61.1177   87.1125   11.1460 O.2     1  UNL1       -0.3324
      4 C          62.3336   86.5477   11.8190 C.ar    1  UNL1        0.2600
      5 N          63.3347   87.6541   11.9718 N.ar    1  UNL1       -0.1870
      6 C          65.4903   95.4091   10.5435 C.2     1  UNL1        0.2297
      7 O          64.6059   95.4417    9.3325 O.2     1  UNL1       -0.2745
      8 N          65.5130   94.1944   11.4233 N.am    1  UNL1       -0.2586
      9 C          66.3420   94.0174   12.6608 C.3     1  UNL1        0.1029
     10 C          66.0520   92.6570   13.2222 C.3     1  UNL1        0.0495
     11 C          65.0439   91.9932   12.3317 C.ar    1  UNL1       -0.0067
     12 C          64.3862   90.6463   12.3896 C.ar    1  UNL1        0.0002
     13 C          63.3954   90.2497   11.3356 C.ar    1  UNL1        0.0389
     14 C          63.0623   91.1998   10.2238 C.ar    1  UNL1        0.0044
     15 C          63.7200   92.5467   10.1659 C.ar    1  UNL1        0.0147
     16 C          64.7108   92.9434   11.2199 C.ar    1  UNL1        0.0499
     17 C          66.3520   96.5914   10.8749 C.3     1  UNL1        0.0915
     18 C          67.5990   96.8558   10.0841 C.3     1  UNL1        0.0513
     19 O          68.3057   94.7235    8.7788 O.co2   1  UNL1       -0.5492
     20 C          67.8267   96.1450    8.7831 C.2     1  UNL1        0.0508
     21 O          67.5753   96.8556    7.4862 O.co2   1  UNL1       -0.5492
     22 C          62.5161   85.1260   12.2613 C.ar    1  UNL1        0.0560
     23 C          62.7352   84.0462   11.2435 C.ar    1  UNL1        0.0086
     24 C          62.9178   82.6246   11.6858 C.ar    1  UNL1        0.0715
     25 C          62.8813   82.2828   13.1459 C.ar    1  UNL1        0.0077
     26 C          62.6622   83.3627   14.1637 C.ar    1  UNL1        0.0715
     27 C          62.4796   84.7843   13.7214 C.ar    1  UNL1        0.0086
     28 C          63.1369   81.5448   10.6680 C.3     1  UNL1        0.4186
     29 F          63.3559   80.4648    9.6502 F       1  UNL1       -0.1659
     30 F          63.6931   82.5582    9.7123 F       1  UNL1       -0.1659
     31 F          62.5806   80.5312   11.6237 F       1  UNL1       -0.1659
     32 C          62.6257   83.0209   15.6238 C.3     1  UNL1        0.4186
     33 F          62.5891   82.6792   17.0838 F       1  UNL1       -0.1659
     34 F          63.2014   84.3663   15.9531 F       1  UNL1       -0.1659
     35 F          62.0499   81.6755   15.2945 F       1  UNL1       -0.1659
@<TRIPOS>UNITY_ATOM_ATTR
19 1
charge -1
@<TRIPOS>BOND
     1    19    20   ar
     2    20    21   ar
     3    20    18    1
     4    18    17    1
     5    17     6    1
     6     6     7    2
     7     6     8   am
     8     8     9    1
     9     9    10    1
    10    10    11    1
    11    11    12   ar
    12    12    13   ar
    13    13     1    1
    14     1     2   ar
    15     2     3   ar
    16     3     4   ar
    17     4    22    1
    18    22    23   ar
    19    23    24   ar
    20    24    28    1
    21    28    29    1
    22    28    30    1
    23    28    31    1
    24    24    25   ar
    25    25    26   ar
    26    26    32    1
    27    32    33    1
    28    32    34    1
    29    32    35    1
    30    26    27   ar
    31     4     5   ar
    32    13    14   ar
    33    14    15   ar
    34    15    16   ar
    35    16     8    1
    36    16    11   ar
    37     5     1   ar
    38    27    22   ar
