@<TRIPOS>MOLECULE
*****
 35 39 0 0 0
SMALL
GASTEIGER

@<TRIPOS>ATOM
      1 C          58.8336   90.2068    5.9254 C.ar    1  UNL1        0.0644
      2 C          57.9555   91.2709    5.3366 C.ar    1  UNL1        0.0155
      3 C          58.5095   92.2206    4.3161 C.ar    1  UNL1       -0.0032
      4 C          59.9415   92.1060    3.8844 C.ar    1  UNL1       -0.0246
      5 C          60.8194   91.0419    4.4732 C.ar    1  UNL1       -0.0234
      6 C          60.2656   90.0923    5.4937 C.ar    1  UNL1        0.0113
      7 C          62.2634   90.7554    4.1848 C.3     1  UNL1        0.0434
      8 C          63.1858   91.4623    3.2364 C.3     1  UNL1        0.0771
      9 N          62.8922   92.6301    2.3422 N.3     1  UNL1       -0.2671
     10 C          61.6037   93.3797    2.1755 C.3     1  UNL1        0.0771
     11 C          60.2905   93.1465    2.8618 C.3     1  UNL1        0.0434
     12 N          58.2796   89.2572    6.9458 N.pl3   1  UNL1       -0.2150
     13 H          57.3107   89.2302    7.1182 H       1  UNL1        0.1737
     14 O          58.6200   87.1639    6.9913 O.2     1  UNL1       -0.1499
     15 S          59.2019   88.3488    7.7036 S.O2    1  UNL1        0.0736
     16 O          59.7837   89.5338    8.4159 O.2     1  UNL1       -0.1499
     17 C          60.1242   87.4404    8.4613 C.ar    1  UNL1        0.1252
     18 C          60.2279   87.5521    9.9536 C.ar    1  UNL1        0.0202
     19 C          61.1502   86.6437   10.7113 C.ar    1  UNL1        0.0014
     20 C          61.9688   85.6236    9.9769 C.ar    1  UNL1        0.0001
     21 C          61.8651   85.5120    8.4846 C.ar    1  UNL1        0.0014
     22 C          60.9428   86.4204    7.7268 C.ar    1  UNL1        0.0202
     23 C          62.8911   84.7152   10.7345 C.ar    1  UNL1        0.0000
     24 C          63.6810   83.6699   10.0042 C.ar    1  UNL1        0.0000
     25 C          64.6034   82.7614   10.7618 C.ar    1  UNL1        0.0000
     26 C          64.7358   82.8983   12.2497 C.ar    1  UNL1        0.0000
     27 C          63.9459   83.9437   12.9800 C.ar    1  UNL1        0.0000
     28 C          63.0236   84.8520   12.2224 C.ar    1  UNL1        0.0000
     29 C          64.0388   93.1123    1.5038 C.3     1  UNL1        0.1180
     30 C          64.5514   94.5125    1.6680 C.ar    1  UNL1        0.0693
     31 C          64.6113   95.5608    0.5968 C.ar    1  UNL1        0.0379
     32 C          65.1910   96.8062    1.1991 C.ar    1  UNL1        0.1211
     33 N          65.4893   96.5278    2.6425 N.ar    1  UNL1       -0.1713
     34 N          65.0940   95.1101    2.9324 N.ar    1  UNL1       -0.2784
     35 H          65.1762   94.6522    3.8001 H       1  UNL1        0.1886
@<TRIPOS>BOND
     1    14    15    2
     2    15    16    2
     3    15    12    1
     4    12     1    1
     5     1     2   ar
     6     2     3   ar
     7     3     4   ar
     8     4     5   ar
     9     5     6   ar
    10     5     7    1
    11     7     8    1
    12     8     9    1
    13     9    29    1
    14    29    30    1
    15    30    31   ar
    16    31    32   ar
    17    32    33   ar
    18    33    34   ar
    19     9    10    1
    20    10    11    1
    21    15    17    1
    22    17    18   ar
    23    18    19   ar
    24    19    20   ar
    25    20    23    1
    26    23    24   ar
    27    24    25   ar
    28    25    26   ar
    29    26    27   ar
    30    27    28   ar
    31    20    21   ar
    32    21    22   ar
    33     6     1   ar
    34    34    30   ar
    35    22    17   ar
    36    11     4    1
    37    28    23   ar
    38    12    13    1
    39    34    35    1
@<TRIPOS>MOLECULE
*****
 35 39 0 0 0
SMALL
GASTEIGER

@<TRIPOS>ATOM
      1 C          59.3471   88.9606    7.5927 C.ar    1  UNL1        0.0644
      2 C          59.3204   87.4608    7.5996 C.ar    1  UNL1        0.0155
      3 C          60.0994   86.7016    8.6324 C.ar    1  UNL1       -0.0032
      4 C          60.9051   87.4421    9.6583 C.ar    1  UNL1       -0.0246
      5 C          60.9318   88.9418    9.6514 C.ar    1  UNL1       -0.0234
      6 C          60.1529   89.7011    8.6186 C.ar    1  UNL1        0.0113
      7 C          61.6638   89.8685   10.5763 C.3     1  UNL1        0.0434
      8 C          62.5499   89.5242   11.7367 C.3     1  UNL1        0.0771
      9 N          62.9228   88.1683   12.2586 N.3     1  UNL1       -0.2671
     10 C          62.5017   86.8217   11.7492 C.3     1  UNL1        0.0771
     11 C          61.6038   86.4986   10.5919 C.3     1  UNL1        0.0434
     12 N          58.5681   89.7198    6.5598 N.pl3   1  UNL1       -0.2150
     13 H          57.5844   89.6810    6.5584 H       1  UNL1        0.1737
     14 O          60.4793   89.6336    5.6433 O.2     1  UNL1       -0.1499
     15 S          59.2880   90.5379    5.5291 S.O2    1  UNL1        0.0736
     16 O          58.0967   91.4423    5.4149 O.2     1  UNL1       -0.1499
     17 C          60.0079   91.3561    4.4984 C.ar    1  UNL1        0.1252
     18 C          59.2726   92.4192    3.7373 C.ar    1  UNL1        0.0202
     19 C          59.9926   93.2373    2.7066 C.ar    1  UNL1        0.0014
     20 C          61.4477   92.9925    2.4370 C.ar    1  UNL1        0.0001
     21 C          62.1829   91.9294    3.1981 C.ar    1  UNL1        0.0014
     22 C          61.4630   91.1112    4.2288 C.ar    1  UNL1        0.0202
     23 C          62.1676   93.8106    1.4063 C.ar    1  UNL1        0.0000
     24 C          61.5009   95.0106    0.8017 C.ar    1  UNL1        0.0000
     25 C          62.2207   95.8288   -0.2290 C.ar    1  UNL1        0.0000
     26 C          63.6074   95.4470   -0.6551 C.ar    1  UNL1        0.0000
     27 C          64.2741   94.2470   -0.0504 C.ar    1  UNL1        0.0000
     28 C          63.5542   93.4289    0.9802 C.ar    1  UNL1        0.0000
     29 C          63.8377   88.1575   13.4472 C.3     1  UNL1        0.1180
     30 C          63.9458   89.3715   14.3217 C.ar    1  UNL1        0.0693
     31 C          65.0656   90.3694   14.3104 C.ar    1  UNL1        0.0379
     32 C          64.7648   91.4152   15.3427 C.ar    1  UNL1        0.1211
     33 N          63.4591   91.0638   15.9920 N.ar    1  UNL1       -0.1713
     34 N          62.9528   89.8006   15.3610 N.ar    1  UNL1       -0.2784
     35 H          62.1159   89.3349   15.5889 H       1  UNL1        0.1886
@<TRIPOS>BOND
     1    14    15    2
     2    15    16    2
     3    15    12    1
     4    12     1    1
     5     1     2   ar
     6     2     3   ar
     7     3     4   ar
     8     4     5   ar
     9     5     6   ar
    10     5     7    1
    11     7     8    1
    12     8     9    1
    13     9    29    1
    14    29    30    1
    15    30    31   ar
    16    31    32   ar
    17    32    33   ar
    18    33    34   ar
    19     9    10    1
    20    10    11    1
    21    15    17    1
    22    17    18   ar
    23    18    19   ar
    24    19    20   ar
    25    20    23    1
    26    23    24   ar
    27    24    25   ar
    28    25    26   ar
    29    26    27   ar
    30    27    28   ar
    31    20    21   ar
    32    21    22   ar
    33     6     1   ar
    34    34    30   ar
    35    22    17   ar
    36    11     4    1
    37    28    23   ar
    38    12    13    1
    39    34    35    1
@<TRIPOS>MOLECULE
*****
 35 39 0 0 0
SMALL
GASTEIGER

@<TRIPOS>ATOM
      1 C          63.4234   88.9474   16.4852 C.ar    1  UNL1        0.0644
      2 C          62.6140   88.2844   17.5601 C.ar    1  UNL1        0.0155
      3 C          62.4193   86.7972   17.5428 C.ar    1  UNL1       -0.0032
      4 C          63.0341   85.9729   16.4507 C.ar    1  UNL1       -0.0246
      5 C          63.8435   86.6359   15.3759 C.ar    1  UNL1       -0.0234
      6 C          64.0382   88.1231   15.3931 C.ar    1  UNL1        0.0113
      7 C          64.5378   86.0059   14.2049 C.3     1  UNL1        0.0434
      8 C          64.5941   84.5572   13.8197 C.3     1  UNL1        0.0771
      9 N          63.9701   83.3810   14.5102 N.3     1  UNL1       -0.2671
     10 C          63.1356   83.3627   15.7565 C.3     1  UNL1        0.0771
     11 C          62.7190   84.5162   16.6201 C.3     1  UNL1        0.0434
     12 N          63.6181   90.4346   16.5025 N.pl3   1  UNL1       -0.2150
     13 H          63.3653   90.9549   17.2991 H       1  UNL1        0.1737
     14 O          65.2673   91.7269   16.1711 O.2     1  UNL1       -0.1499
     15 S          64.1978   91.1290   15.3059 S.O2    1  UNL1        0.0736
     16 O          63.1282   90.5311   14.4407 O.2     1  UNL1       -0.1499
     17 C          64.7775   91.8235   14.1094 C.ar    1  UNL1        0.1252
     18 C          65.8678   92.8383   14.2864 C.ar    1  UNL1        0.0202
     19 C          66.4475   93.5327   13.0898 C.ar    1  UNL1        0.0014
     20 C          65.9369   93.2123   11.7163 C.ar    1  UNL1        0.0001
     21 C          64.8466   92.1975   11.5392 C.ar    1  UNL1        0.0014
     22 C          64.2669   91.5030   12.7358 C.ar    1  UNL1        0.0202
     23 C          66.5166   93.9067   10.5197 C.ar    1  UNL1        0.0000
     24 C          66.0981   95.3091   10.1908 C.ar    1  UNL1        0.0000
     25 C          66.6777   96.0036    8.9942 C.ar    1  UNL1        0.0000
     26 C          67.6757   95.2956    8.1265 C.ar    1  UNL1        0.0000
     27 C          68.0941   93.8931    8.4555 C.ar    1  UNL1        0.0000
     28 C          67.5145   93.1988    9.6520 C.ar    1  UNL1        0.0000
     29 C          64.2126   82.0465   13.8697 C.3     1  UNL1        0.1180
     30 C          64.0207   81.8779   12.3916 C.ar    1  UNL1        0.0693
     31 C          63.0054   80.9943   11.7294 C.ar    1  UNL1        0.0379
     32 C          63.1676   81.1337   10.2448 C.ar    1  UNL1        0.1211
     33 N          64.2832   82.1034    9.9893 N.ar    1  UNL1       -0.1713
     34 N          64.8105   82.5633   11.3161 N.ar    1  UNL1       -0.2784
     35 H          65.5457   83.2028   11.4565 H       1  UNL1        0.1886
@<TRIPOS>BOND
     1    14    15    2
     2    15    16    2
     3    15    12    1
     4    12     1    1
     5     1     2   ar
     6     2     3   ar
     7     3     4   ar
     8     4     5   ar
     9     5     6   ar
    10     5     7    1
    11     7     8    1
    12     8     9    1
    13     9    29    1
    14    29    30    1
    15    30    31   ar
    16    31    32   ar
    17    32    33   ar
    18    33    34   ar
    19     9    10    1
    20    10    11    1
    21    15    17    1
    22    17    18   ar
    23    18    19   ar
    24    19    20   ar
    25    20    23    1
    26    23    24   ar
    27    24    25   ar
    28    25    26   ar
    29    26    27   ar
    30    27    28   ar
    31    20    21   ar
    32    21    22   ar
    33     6     1   ar
    34    34    30   ar
    35    22    17   ar
    36    11     4    1
    37    28    23   ar
    38    12    13    1
    39    34    35    1
@<TRIPOS>MOLECULE
*****
 35 39 0 0 0
SMALL
GASTEIGER

@<TRIPOS>ATOM
      1 C          59.2726   88.9053    7.4915 C.ar    1  UNL1        0.0644
      2 C          59.0862   87.4323    7.2780 C.ar    1  UNL1        0.0155
      3 C          59.7760   86.4508    8.1785 C.ar    1  UNL1       -0.0032
      4 C          60.6522   86.9423    9.2924 C.ar    1  UNL1       -0.0246
      5 C          60.8385   88.4152    9.5058 C.ar    1  UNL1       -0.0234
      6 C          60.1488   89.3968    8.6054 C.ar    1  UNL1        0.0113
      7 C          61.6616   89.1125   10.5482 C.3     1  UNL1        0.0434
      8 C          62.5016   88.5088   11.6346 C.3     1  UNL1        0.0771
      9 N          62.7259   87.0590   11.9468 N.3     1  UNL1       -0.2671
     10 C          62.1657   85.8546   11.2499 C.3     1  UNL1        0.0771
     11 C          61.2428   85.8027   10.0686 C.3     1  UNL1        0.0434
     12 N          58.5828   89.8868    6.5910 N.pl3   1  UNL1       -0.2150
     13 H          57.6150   90.0428    6.6824 H       1  UNL1        0.1737
     14 O          58.2318   91.5962    5.3849 O.2     1  UNL1       -0.1499
     15 S          59.3675   90.6306    5.5513 S.O2    1  UNL1        0.0736
     16 O          60.5033   89.6650    5.7178 O.2     1  UNL1       -0.1499
     17 C          60.1523   91.3744    4.5116 C.ar    1  UNL1        0.1252
     18 C          59.4964   92.4608    3.7118 C.ar    1  UNL1        0.0202
     19 C          60.2813   93.2045    2.6721 C.ar    1  UNL1        0.0014
     20 C          61.7218   92.8620    2.4323 C.ar    1  UNL1        0.0001
     21 C          62.3776   91.7756    3.2321 C.ar    1  UNL1        0.0014
     22 C          61.5928   91.0318    4.2718 C.ar    1  UNL1        0.0202
     23 C          62.5066   93.6058    1.3926 C.ar    1  UNL1        0.0000
     24 C          61.8759   93.9392    0.0731 C.ar    1  UNL1        0.0000
     25 C          62.6606   94.6829   -0.9666 C.ar    1  UNL1        0.0000
     26 C          64.0761   95.0932   -0.6869 C.ar    1  UNL1        0.0000
     27 C          64.7067   94.7598    0.6327 C.ar    1  UNL1        0.0000
     28 C          63.9220   94.0161    1.6723 C.ar    1  UNL1        0.0000
     29 C          63.6300   86.7761   13.1098 C.3     1  UNL1        0.1180
     30 C          63.5587   85.4517   13.8105 C.ar    1  UNL1        0.0693
     31 C          64.5197   84.3123   13.6423 C.ar    1  UNL1        0.0379
     32 C          64.0687   83.1907   14.5303 C.ar    1  UNL1        0.1211
     33 N          62.8290   83.6367   15.2472 N.ar    1  UNL1       -0.1713
     34 N          62.5137   85.0342   14.8024 N.ar    1  UNL1       -0.2784
     35 H          61.7543   85.5813   15.1077 H       1  UNL1        0.1886
@<TRIPOS>BOND
     1    14    15    2
     2    15    16    2
     3    15    12    1
     4    12     1    1
     5     1     2   ar
     6     2     3   ar
     7     3     4   ar
     8     4     5   ar
     9     5     6   ar
    10     5     7    1
    11     7     8    1
    12     8     9    1
    13     9    29    1
    14    29    30    1
    15    30    31   ar
    16    31    32   ar
    17    32    33   ar
    18    33    34   ar
    19     9    10    1
    20    10    11    1
    21    15    17    1
    22    17    18   ar
    23    18    19   ar
    24    19    20   ar
    25    20    23    1
    26    23    24   ar
    27    24    25   ar
    28    25    26   ar
    29    26    27   ar
    30    27    28   ar
    31    20    21   ar
    32    21    22   ar
    33     6     1   ar
    34    34    30   ar
    35    22    17   ar
    36    11     4    1
    37    28    23   ar
    38    12    13    1
    39    34    35    1
@<TRIPOS>MOLECULE
*****
 35 39 0 0 0
SMALL
GASTEIGER

@<TRIPOS>ATOM
      1 C          63.5403   89.1447   16.3754 C.ar    1  UNL1        0.0644
      2 C          62.9496   88.4371   17.5587 C.ar    1  UNL1        0.0155
      3 C          62.7349   86.9531   17.5148 C.ar    1  UNL1       -0.0032
      4 C          63.1110   86.1769   16.2876 C.ar    1  UNL1       -0.0246
      5 C          63.7017   86.8845   15.1044 C.ar    1  UNL1       -0.0234
      6 C          63.9164   88.3684   15.1482 C.ar    1  UNL1        0.0113
      7 C          64.1430   86.3055   13.7928 C.3     1  UNL1        0.0434
      8 C          64.1023   84.8758   13.3407 C.3     1  UNL1        0.0771
      9 N          63.6105   83.6721   14.0884 N.3     1  UNL1       -0.2671
     10 C          63.0378   83.6007   15.4729 C.3     1  UNL1        0.0771
     11 C          62.8155   84.7154   16.4517 C.3     1  UNL1        0.0434
     12 N          63.7550   90.6286   16.4193 N.pl3   1  UNL1       -0.2150
     13 H          63.5195   91.1363   17.2293 H       1  UNL1        0.1737
     14 O          65.4849   91.8037   16.0636 O.2     1  UNL1       -0.1499
     15 S          64.3283   91.3389   15.2290 S.O2    1  UNL1        0.0736
     16 O          63.1718   90.8742   14.3945 O.2     1  UNL1       -0.1499
     17 C          64.9017   92.0493   14.0388 C.ar    1  UNL1        0.1252
     18 C          64.4475   91.6838   12.6567 C.ar    1  UNL1        0.0202
     19 C          65.0210   92.3942   11.4665 C.ar    1  UNL1        0.0014
     20 C          66.0485   93.4700   11.6583 C.ar    1  UNL1        0.0001
     21 C          66.5027   93.8355   13.0404 C.ar    1  UNL1        0.0014
     22 C          65.9293   93.1251   14.2307 C.ar    1  UNL1        0.0202
     23 C          66.6219   94.1804   10.4682 C.ar    1  UNL1        0.0000
     24 C          67.3528   93.4051    9.4124 C.ar    1  UNL1        0.0000
     25 C          67.9262   94.1154    8.2222 C.ar    1  UNL1        0.0000
     26 C          67.7688   95.6011    8.0877 C.ar    1  UNL1        0.0000
     27 C          67.0379   96.3764    9.1436 C.ar    1  UNL1        0.0000
     28 C          66.4645   95.6660   10.3337 C.ar    1  UNL1        0.0000
     29 C          63.7037   82.3672   13.3546 C.3     1  UNL1        0.1180
     30 C          62.6395   81.3260   13.5376 C.ar    1  UNL1        0.0693
     31 C          62.7699   79.8663   13.2182 C.ar    1  UNL1        0.0379
     32 C          61.4690   79.2000   13.5554 C.ar    1  UNL1        0.1211
     33 N          60.5345   80.2480   14.0832 N.ar    1  UNL1       -0.1713
     34 N          61.2579   81.5620   14.0722 N.ar    1  UNL1       -0.2784
     35 H          60.8905   82.4274   14.3645 H       1  UNL1        0.1886
@<TRIPOS>BOND
     1    14    15    2
     2    15    16    2
     3    15    12    1
     4    12     1    1
     5     1     2   ar
     6     2     3   ar
     7     3     4   ar
     8     4     5   ar
     9     5     6   ar
    10     5     7    1
    11     7     8    1
    12     8     9    1
    13     9    29    1
    14    29    30    1
    15    30    31   ar
    16    31    32   ar
    17    32    33   ar
    18    33    34   ar
    19     9    10    1
    20    10    11    1
    21    15    17    1
    22    17    18   ar
    23    18    19   ar
    24    19    20   ar
    25    20    23    1
    26    23    24   ar
    27    24    25   ar
    28    25    26   ar
    29    26    27   ar
    30    27    28   ar
    31    20    21   ar
    32    21    22   ar
    33     6     1   ar
    34    34    30   ar
    35    22    17   ar
    36    11     4    1
    37    28    23   ar
    38    12    13    1
    39    34    35    1
@<TRIPOS>MOLECULE
*****
 35 39 0 0 0
SMALL
GASTEIGER

@<TRIPOS>ATOM
      1 C          59.6364   88.7695    7.8455 C.ar    1  UNL1        0.0644
      2 C          59.9067   87.2981    7.9547 C.ar    1  UNL1        0.0155
      3 C          60.7844   86.7763    9.0535 C.ar    1  UNL1       -0.0032
      4 C          61.3918   87.7260   10.0431 C.ar    1  UNL1       -0.0246
      5 C          61.1215   89.1973    9.9339 C.ar    1  UNL1       -0.0234
      6 C          60.2438   89.7191    8.8352 C.ar    1  UNL1        0.0113
      7 C          61.6233   90.3078   10.8085 C.3     1  UNL1        0.0434
      8 C          62.5194   90.2212   12.0084 C.3     1  UNL1        0.0771
      9 N          63.1349   89.0027   12.6298 N.3     1  UNL1       -0.2671
     10 C          63.0065   87.5698   12.2051 C.3     1  UNL1        0.0771
     11 C          62.2307   87.0016   11.0539 C.3     1  UNL1        0.0434
     12 N          58.7586   89.2913    6.7467 N.pl3   1  UNL1       -0.2150
     13 H          57.8116   89.0255    6.7050 H       1  UNL1        0.1737
     14 O          60.6003   89.4301    5.7031 O.2     1  UNL1       -0.1499
     15 S          59.3239   90.2180    5.7115 S.O2    1  UNL1        0.0736
     16 O          58.0475   91.0059    5.7199 O.2     1  UNL1       -0.1499
     17 C          59.8891   91.1447    4.6762 C.ar    1  UNL1        0.1252
     18 C          61.3575   91.1214    4.3704 C.ar    1  UNL1        0.0202
     19 C          61.9226   92.0482    3.3352 C.ar    1  UNL1        0.0014
     20 C          61.0196   92.9982    2.6058 C.ar    1  UNL1        0.0001
     21 C          59.5513   93.0215    2.9116 C.ar    1  UNL1        0.0014
     22 C          58.9860   92.0947    3.9468 C.ar    1  UNL1        0.0202
     23 C          61.5848   93.9249    1.5705 C.ar    1  UNL1        0.0000
     24 C          60.6641   94.6978    0.6733 C.ar    1  UNL1        0.0000
     25 C          61.2292   95.6246   -0.3620 C.ar    1  UNL1        0.0000
     26 C          62.7149   95.7785   -0.5000 C.ar    1  UNL1        0.0000
     27 C          63.6355   95.0055    0.3973 C.ar    1  UNL1        0.0000
     28 C          63.0704   94.0788    1.4325 C.ar    1  UNL1        0.0000
     29 C          63.9923   89.2497   13.8356 C.3     1  UNL1        0.1180
     30 C          64.6775   90.5726   14.0105 C.ar    1  UNL1        0.0693
     31 C          65.3115   91.3879   12.9226 C.ar    1  UNL1        0.0379
     32 C          65.8747   92.6315   13.5439 C.ar    1  UNL1        0.1211
     33 N          65.5890   92.5850   15.0156 N.ar    1  UNL1       -0.1713
     34 N          64.8490   91.3124   15.3041 N.ar    1  UNL1       -0.2784
     35 H          64.5317   91.0150   16.1873 H       1  UNL1        0.1886
@<TRIPOS>BOND
     1    14    15    2
     2    15    16    2
     3    15    12    1
     4    12     1    1
     5     1     2   ar
     6     2     3   ar
     7     3     4   ar
     8     4     5   ar
     9     5     6   ar
    10     5     7    1
    11     7     8    1
    12     8     9    1
    13     9    29    1
    14    29    30    1
    15    30    31   ar
    16    31    32   ar
    17    32    33   ar
    18    33    34   ar
    19     9    10    1
    20    10    11    1
    21    15    17    1
    22    17    18   ar
    23    18    19   ar
    24    19    20   ar
    25    20    23    1
    26    23    24   ar
    27    24    25   ar
    28    25    26   ar
    29    26    27   ar
    30    27    28   ar
    31    20    21   ar
    32    21    22   ar
    33     6     1   ar
    34    34    30   ar
    35    22    17   ar
    36    11     4    1
    37    28    23   ar
    38    12    13    1
    39    34    35    1
@<TRIPOS>MOLECULE
*****
 35 39 0 0 0
SMALL
GASTEIGER

@<TRIPOS>ATOM
      1 C          59.4430   88.5575    7.9456 C.ar    1  UNL1        0.0644
      2 C          59.5022   89.0115    9.3740 C.ar    1  UNL1        0.0155
      3 C          60.3563   88.2724   10.3611 C.ar    1  UNL1       -0.0032
      4 C          61.1512   87.0794    9.9197 C.ar    1  UNL1       -0.0246
      5 C          61.0920   86.6255    8.4913 C.ar    1  UNL1       -0.0234
      6 C          60.2380   87.3645    7.5042 C.ar    1  UNL1        0.0113
      7 C          61.7995   85.4703    7.8470 C.3     1  UNL1        0.0434
      8 C          62.7410   84.4838    8.4721 C.3     1  UNL1        0.0771
      9 N          63.2073   84.4088    9.8957 N.3     1  UNL1       -0.2671
     10 C          62.8475   85.3018   11.0460 C.3     1  UNL1        0.0771
     11 C          61.9325   86.4903   11.0567 C.3     1  UNL1        0.0434
     12 N          58.5889   89.2966    6.9585 N.pl3   1  UNL1       -0.2150
     13 H          57.6089   89.2097    6.9935 H       1  UNL1        0.1737
     14 O          57.8712   90.5607    5.4136 O.2     1  UNL1       -0.1499
     15 S          59.2281   90.1680    5.9183 S.O2    1  UNL1        0.0736
     16 O          60.5849   89.7753    6.4230 O.2     1  UNL1       -0.1499
     17 C          59.8672   91.0394    4.8780 C.ar    1  UNL1        0.1252
     18 C          59.0519   92.0772    4.1650 C.ar    1  UNL1        0.0202
     19 C          59.6912   92.9485    3.1247 C.ar    1  UNL1        0.0014
     20 C          61.1455   92.7822    2.7975 C.ar    1  UNL1        0.0001
     21 C          61.9608   91.7444    3.5105 C.ar    1  UNL1        0.0014
     22 C          61.3216   90.8730    4.5508 C.ar    1  UNL1        0.0202
     23 C          61.7848   93.6536    1.7572 C.ar    1  UNL1        0.0000
     24 C          63.1876   93.3754    1.3049 C.ar    1  UNL1        0.0000
     25 C          63.8270   94.2467    0.2647 C.ar    1  UNL1        0.0000
     26 C          63.0634   95.3962   -0.3233 C.ar    1  UNL1        0.0000
     27 C          61.6605   95.6743    0.1291 C.ar    1  UNL1        0.0000
     28 C          61.0213   94.8031    1.1693 C.ar    1  UNL1        0.0000
     29 C          64.1594   83.2934   10.2108 C.3     1  UNL1        0.1180
     30 C          63.8925   82.3857   11.3749 C.ar    1  UNL1        0.0693
     31 C          62.7904   81.3724   11.4683 C.ar    1  UNL1        0.0379
     32 C          62.8977   80.6926   12.8010 C.ar    1  UNL1        0.1211
     33 N          64.0660   81.2856   13.5313 N.ar    1  UNL1       -0.1713
     34 N          64.6809   82.3321   12.6499 N.ar    1  UNL1       -0.2784
     35 H          65.4643   82.8863   12.8696 H       1  UNL1        0.1886
@<TRIPOS>BOND
     1    14    15    2
     2    15    16    2
     3    15    12    1
     4    12     1    1
     5     1     2   ar
     6     2     3   ar
     7     3     4   ar
     8     4     5   ar
     9     5     6   ar
    10     5     7    1
    11     7     8    1
    12     8     9    1
    13     9    29    1
    14    29    30    1
    15    30    31   ar
    16    31    32   ar
    17    32    33   ar
    18    33    34   ar
    19     9    10    1
    20    10    11    1
    21    15    17    1
    22    17    18   ar
    23    18    19   ar
    24    19    20   ar
    25    20    23    1
    26    23    24   ar
    27    24    25   ar
    28    25    26   ar
    29    26    27   ar
    30    27    28   ar
    31    20    21   ar
    32    21    22   ar
    33     6     1   ar
    34    34    30   ar
    35    22    17   ar
    36    11     4    1
    37    28    23   ar
    38    12    13    1
    39    34    35    1
@<TRIPOS>MOLECULE
*****
 35 39 0 0 0
SMALL
GASTEIGER

@<TRIPOS>ATOM
      1 C          59.8399   88.9384    8.2547 C.ar    1  UNL1        0.0644
      2 C          60.4211   90.0885    9.0225 C.ar    1  UNL1        0.0155
      3 C          61.3214   89.8296   10.1941 C.ar    1  UNL1       -0.0032
      4 C          61.6404   88.4206   10.5978 C.ar    1  UNL1       -0.0246
      5 C          61.0592   87.2706    9.8301 C.ar    1  UNL1       -0.0234
      6 C          60.1589   87.5295    8.6585 C.ar    1  UNL1        0.0113
      7 C          61.2471   85.8006   10.0624 C.3     1  UNL1        0.0434
      8 C          62.0628   85.1178   11.1200 C.3     1  UNL1        0.0771
      9 N          62.8919   85.7361   12.2063 N.3     1  UNL1       -0.2671
     10 C          63.1102   87.1901   12.5034 C.3     1  UNL1        0.0771
     11 C          62.5532   88.3849   11.7876 C.3     1  UNL1        0.0434
     12 N          58.9396   89.1974    7.0832 N.pl3   1  UNL1       -0.2150
     13 H          58.0585   88.7609    7.0335 H       1  UNL1        0.1737
     14 O          60.7686   89.5556    6.0700 O.2     1  UNL1       -0.1499
     15 S          59.3818   90.1214    5.9875 S.O2    1  UNL1        0.0736
     16 O          57.9951   90.6872    5.9050 O.2     1  UNL1       -0.1499
     17 C          59.8240   91.0454    4.8917 C.ar    1  UNL1        0.1252
     18 C          61.2654   91.0827    4.4781 C.ar    1  UNL1        0.0202
     19 C          61.7075   92.0067    3.3824 C.ar    1  UNL1        0.0014
     20 C          60.7084   92.8934    2.7001 C.ar    1  UNL1        0.0001
     21 C          59.2670   92.8561    3.1137 C.ar    1  UNL1        0.0014
     22 C          58.8248   91.9321    4.2094 C.ar    1  UNL1        0.0202
     23 C          61.1505   93.8174    1.6043 C.ar    1  UNL1        0.0000
     24 C          60.2563   94.9374    1.1615 C.ar    1  UNL1        0.0000
     25 C          60.6983   95.8615    0.0657 C.ar    1  UNL1        0.0000
     26 C          62.0345   95.6655   -0.5872 C.ar    1  UNL1        0.0000
     27 C          62.9287   94.5455   -0.1443 C.ar    1  UNL1        0.0000
     28 C          62.4866   93.6215    0.9514 C.ar    1  UNL1        0.0000
     29 C          63.5959   84.7732   13.1158 C.3     1  UNL1        0.1180
     30 C          63.0289   83.4028   13.3407 C.ar    1  UNL1        0.0693
     31 C          63.2726   82.1961   12.4837 C.ar    1  UNL1        0.0379
     32 C          62.5130   81.0461   13.0756 C.ar    1  UNL1        0.1211
     33 N          61.7998   81.5419   14.2985 N.ar    1  UNL1       -0.1713
     34 N          62.1186   82.9985   14.4624 N.ar    1  UNL1       -0.2784
     35 H          61.7885   83.5860   15.1801 H       1  UNL1        0.1886
@<TRIPOS>BOND
     1    14    15    2
     2    15    16    2
     3    15    12    1
     4    12     1    1
     5     1     2   ar
     6     2     3   ar
     7     3     4   ar
     8     4     5   ar
     9     5     6   ar
    10     5     7    1
    11     7     8    1
    12     8     9    1
    13     9    29    1
    14    29    30    1
    15    30    31   ar
    16    31    32   ar
    17    32    33   ar
    18    33    34   ar
    19     9    10    1
    20    10    11    1
    21    15    17    1
    22    17    18   ar
    23    18    19   ar
    24    19    20   ar
    25    20    23    1
    26    23    24   ar
    27    24    25   ar
    28    25    26   ar
    29    26    27   ar
    30    27    28   ar
    31    20    21   ar
    32    21    22   ar
    33     6     1   ar
    34    34    30   ar
    35    22    17   ar
    36    11     4    1
    37    28    23   ar
    38    12    13    1
    39    34    35    1
@<TRIPOS>MOLECULE
*****
 35 39 0 0 0
SMALL
GASTEIGER

@<TRIPOS>ATOM
      1 C          64.0251   90.4191   15.9655 C.ar    1  UNL1        0.0644
      2 C          64.7484   91.4129   16.8254 C.ar    1  UNL1        0.0155
      3 C          65.5682   92.4971   16.1910 C.ar    1  UNL1       -0.0032
      4 C          65.6648   92.5875   14.6968 C.ar    1  UNL1       -0.0246
      5 C          64.9415   91.5938   13.8371 C.ar    1  UNL1       -0.0234
      6 C          64.1217   90.5096   14.4714 C.ar    1  UNL1        0.0113
      7 C          64.9042   91.5044   12.3402 C.3     1  UNL1        0.0434
      8 C          65.5810   92.3867   11.3334 C.3     1  UNL1        0.0771
      9 N          66.4622   93.5762   11.5749 N.3     1  UNL1       -0.2671
     10 C          66.8843   94.1774   12.8828 C.3     1  UNL1        0.0771
     11 C          66.5294   93.7374   14.2722 C.3     1  UNL1        0.0434
     12 N          63.2053   89.3349   16.5999 N.pl3   1  UNL1       -0.2150
     13 H          62.7164   89.5126   17.4357 H       1  UNL1        0.1737
     14 O          62.0392   87.5908   16.9135 O.2     1  UNL1       -0.1499
     15 S          63.1305   87.9800   15.9608 S.O2    1  UNL1        0.0736
     16 O          64.2218   88.3691   15.0080 O.2     1  UNL1       -0.1499
     17 C          63.0557   86.6250   15.3216 C.ar    1  UNL1        0.1252
     18 C          62.5043   85.4619   16.0918 C.ar    1  UNL1        0.0202
     19 C          62.4295   84.1070   15.4526 C.ar    1  UNL1        0.0014
     20 C          62.9060   83.9151   14.0433 C.ar    1  UNL1        0.0001
     21 C          63.4574   85.0782   13.2731 C.ar    1  UNL1        0.0014
     22 C          63.5322   86.4332   13.9123 C.ar    1  UNL1        0.0202
     23 C          62.8312   82.5602   13.4041 C.ar    1  UNL1        0.0000
     24 C          63.2133   82.3884   11.9638 C.ar    1  UNL1        0.0000
     25 C          63.1385   81.0335   11.3244 C.ar    1  UNL1        0.0000
     26 C          62.6817   79.8504   12.1255 C.ar    1  UNL1        0.0000
     27 C          62.2997   80.0222   13.5659 C.ar    1  UNL1        0.0000
     28 C          62.3745   81.3770   14.2051 C.ar    1  UNL1        0.0000
     29 C          66.9913   94.2544   10.3461 C.3     1  UNL1        0.1180
     30 C          66.1560   95.2782    9.6358 C.ar    1  UNL1        0.0693
     31 C          66.4483   95.8760    8.2915 C.ar    1  UNL1        0.0379
     32 C          65.3547   96.8510    7.9702 C.ar    1  UNL1        0.1211
     33 N          64.3865   96.8559    9.1158 N.ar    1  UNL1       -0.1713
     34 N          64.8817   95.8838   10.1453 N.ar    1  UNL1       -0.2784
     35 H          64.4468   95.6792   11.0045 H       1  UNL1        0.1886
@<TRIPOS>BOND
     1    14    15    2
     2    15    16    2
     3    15    12    1
     4    12     1    1
     5     1     2   ar
     6     2     3   ar
     7     3     4   ar
     8     4     5   ar
     9     5     6   ar
    10     5     7    1
    11     7     8    1
    12     8     9    1
    13     9    29    1
    14    29    30    1
    15    30    31   ar
    16    31    32   ar
    17    32    33   ar
    18    33    34   ar
    19     9    10    1
    20    10    11    1
    21    15    17    1
    22    17    18   ar
    23    18    19   ar
    24    19    20   ar
    25    20    23    1
    26    23    24   ar
    27    24    25   ar
    28    25    26   ar
    29    26    27   ar
    30    27    28   ar
    31    20    21   ar
    32    21    22   ar
    33     6     1   ar
    34    34    30   ar
    35    22    17   ar
    36    11     4    1
    37    28    23   ar
    38    12    13    1
    39    34    35    1
