@<TRIPOS>MOLECULE
*****
 26 28 0 0 0
SMALL
GASTEIGER

@<TRIPOS>ATOM
      1 C          64.4062   90.8624   13.1772 C.3     1  UNL1        0.2360
      2 N          65.1476   91.7918   12.2626 N.ar    1  UNL1       -0.2923
      3 C          66.4484   92.5231   12.4143 C.ar    1  UNL1        0.1796
      4 N          66.6853   93.3123   11.1608 N.ar    1  UNL1       -0.2226
      5 C          65.5309   93.0687   10.2345 C.ar    1  UNL1        0.1148
      6 C          64.5805   92.1290   10.9155 C.ar    1  UNL1        0.0770
      7 C          63.2720   91.5367   10.4830 C.3     1  UNL1        0.1409
      8 N          62.5307   90.6073   11.3976 N.3     1  UNL1       -0.1490
      9 S          63.0977   90.2702   12.7446 S.O2    1  UNL1        0.0629
     10 O          61.8336   89.4635   12.7848 O.2     1  UNL1       -0.1555
     11 O          63.2258   89.6528   14.1058 O.2     1  UNL1       -0.1555
     12 C          61.2221   90.0151   10.9650 C.3     1  UNL1        0.1019
     13 C          59.9334   90.5987   11.4637 C.3     1  UNL1        0.0240
     14 C          61.2023   88.8394   10.0338 C.ar    1  UNL1       -0.0061
     15 C          62.2991   87.8177   10.0922 C.ar    1  UNL1       -0.0021
     16 C          62.2793   86.6420    9.1610 C.ar    1  UNL1        0.0111
     17 C          61.1627   86.4879    8.1712 C.ar    1  UNL1        0.0577
     18 CL         61.1429   85.3121    7.2400 Cl      1  UNL1       -0.0822
     19 C          60.0659   87.5095    8.1128 C.ar    1  UNL1        0.0111
     20 C          60.0858   88.6852    9.0441 C.ar    1  UNL1       -0.0021
     21 C          64.9733   90.5252   14.5244 C.3     1  UNL1        0.0761
     22 C          65.5889   91.6007   15.3695 C.3     1  UNL1        0.0966
     23 C          66.9495   91.2147   14.8696 C.3     1  UNL1        0.0298
     24 C          64.2284   91.9867   15.8694 C.3     1  UNL1        0.0298
     25 C          67.6341   93.0751   15.9967 C.3     1  UNL1        0.1739
     26 O          66.2046   92.6762   16.2146 O.3     1  UNL1       -0.3557
@<TRIPOS>BOND
     1    25    26    1
     2    26    22    1
     3    22    23    1
     4    22    24    1
     5    22    21    1
     6    21     1    1
     7     1     2    1
     8     2     3   ar
     9     3     4   ar
    10     4     5   ar
    11     5     6   ar
    12     6     7    1
    13     7     8    1
    14     8    12    1
    15    12    13    1
    16    12    14    1
    17    14    15   ar
    18    15    16   ar
    19    16    17   ar
    20    17    18    1
    21    17    19   ar
    22    19    20   ar
    23     8     9    1
    24     9    10    2
    25     9    11    2
    26     9     1    1
    27     6     2   ar
    28    20    14   ar
@<TRIPOS>MOLECULE
*****
 26 28 0 0 0
SMALL
GASTEIGER

@<TRIPOS>ATOM
      1 C          63.6583   86.0066   13.2668 C.3     1  UNL1        0.2360
      2 N          62.8434   85.9755   12.0079 N.ar    1  UNL1       -0.2923
      3 C          62.3560   84.8416   11.1555 C.ar    1  UNL1        0.1796
      4 N          61.5798   85.4225   10.0109 N.ar    1  UNL1       -0.2226
      5 C          61.5874   86.9155   10.1560 C.ar    1  UNL1        0.1148
      6 C          62.3684   87.2573   11.3902 C.ar    1  UNL1        0.0770
      7 C          62.7083   88.5700   12.0314 C.3     1  UNL1        0.1409
      8 N          63.5233   88.6010   13.2903 N.3     1  UNL1       -0.1490
      9 S          63.9983   87.3194   13.9080 S.O2    1  UNL1        0.0629
     10 O          64.5725   88.3060   14.8811 O.2     1  UNL1       -0.1555
     11 O          64.6727   86.3802   14.8637 O.2     1  UNL1       -0.1555
     12 C          63.8632   89.9138   13.9315 C.3     1  UNL1        0.1019
     13 C          63.4512   90.1856   15.3479 C.3     1  UNL1        0.0240
     14 C          64.6151   90.9547   13.1563 C.ar    1  UNL1       -0.0061
     15 C          65.8574   91.5671   13.7322 C.ar    1  UNL1       -0.0021
     16 C          66.6093   92.6080   12.9570 C.ar    1  UNL1        0.0111
     17 C          66.1189   93.0367   11.6057 C.ar    1  UNL1        0.0577
     18 CL         66.8709   94.0776   10.8304 Cl      1  UNL1       -0.0822
     19 C          64.8766   92.4243   11.0297 C.ar    1  UNL1        0.0111
     20 C          64.1247   91.3834   11.8050 C.ar    1  UNL1       -0.0021
     21 C          64.1334   84.7249   13.8846 C.3     1  UNL1        0.0761
     22 C          63.2461   83.5155   13.8787 C.3     1  UNL1        0.0966
     23 C          64.2032   82.8177   12.9584 C.3     1  UNL1        0.0298
     24 C          62.2890   84.2132   14.7991 C.3     1  UNL1        0.0298
     25 C          62.5231   81.2604   12.8100 C.3     1  UNL1        0.1739
     26 O          62.3588   82.3061   13.8729 O.3     1  UNL1       -0.3557
@<TRIPOS>BOND
     1    25    26    1
     2    26    22    1
     3    22    23    1
     4    22    24    1
     5    22    21    1
     6    21     1    1
     7     1     2    1
     8     2     3   ar
     9     3     4   ar
    10     4     5   ar
    11     5     6   ar
    12     6     7    1
    13     7     8    1
    14     8    12    1
    15    12    13    1
    16    12    14    1
    17    14    15   ar
    18    15    16   ar
    19    16    17   ar
    20    17    18    1
    21    17    19   ar
    22    19    20   ar
    23     8     9    1
    24     9    10    2
    25     9    11    2
    26     9     1    1
    27     6     2   ar
    28    20    14   ar
@<TRIPOS>MOLECULE
*****
 26 28 0 0 0
SMALL
GASTEIGER

@<TRIPOS>ATOM
      1 C          64.3432   91.8748   11.3871 C.3     1  UNL1        0.2360
      2 N          64.9208   91.7494   12.7657 N.ar    1  UNL1       -0.2923
      3 C          65.9417   92.5635   13.5040 C.ar    1  UNL1        0.1796
      4 N          66.1222   91.9574   14.8642 N.ar    1  UNL1       -0.2226
      5 C          65.2129   90.7688   14.9665 C.ar    1  UNL1        0.1148
      6 C          64.4704   90.6402   13.6695 C.ar    1  UNL1        0.0770
      7 C          63.4424   89.6565   13.1948 C.3     1  UNL1        0.1409
      8 N          62.8648   89.7819   11.8162 N.3     1  UNL1       -0.1490
      9 S          63.3151   90.8910   10.9123 S.O2    1  UNL1        0.0629
     10 O          62.3239   90.2104   10.0154 O.2     1  UNL1       -0.1555
     11 O          63.4213   91.7638    9.6970 O.2     1  UNL1       -0.1555
     12 C          61.8367   88.7981   11.3414 C.3     1  UNL1        0.1019
     13 C          60.3951   89.2032   11.2543 C.3     1  UNL1        0.0240
     14 C          62.2503   87.4094   10.9539 C.ar    1  UNL1       -0.0061
     15 C          62.2919   87.0155    9.5071 C.ar    1  UNL1       -0.0021
     16 C          62.7055   85.6268    9.1195 C.ar    1  UNL1        0.0111
     17 C          63.0774   84.6318   10.1787 C.ar    1  UNL1        0.0577
     18 CL         63.4910   83.2430    9.7911 Cl      1  UNL1       -0.0822
     19 C          63.0358   85.0257   11.6255 C.ar    1  UNL1        0.0111
     20 C          62.6222   86.4145   12.0130 C.ar    1  UNL1       -0.0021
     21 C          64.7936   92.9839   10.4831 C.3     1  UNL1        0.0761
     22 C          66.2195   93.4481   10.5186 C.3     1  UNL1        0.0966
     23 C          65.7632   94.8193   10.9204 C.3     1  UNL1        0.0298
     24 C          66.6758   92.0768   10.1168 C.3     1  UNL1        0.0298
     25 C          68.6017   93.4803    9.4821 C.3     1  UNL1        0.1739
     26 O          67.6454   93.9122   10.5541 O.3     1  UNL1       -0.3557
@<TRIPOS>BOND
     1    25    26    1
     2    26    22    1
     3    22    23    1
     4    22    24    1
     5    22    21    1
     6    21     1    1
     7     1     2    1
     8     2     3   ar
     9     3     4   ar
    10     4     5   ar
    11     5     6   ar
    12     6     7    1
    13     7     8    1
    14     8    12    1
    15    12    13    1
    16    12    14    1
    17    14    15   ar
    18    15    16   ar
    19    16    17   ar
    20    17    18    1
    21    17    19   ar
    22    19    20   ar
    23     8     9    1
    24     9    10    2
    25     9    11    2
    26     9     1    1
    27     6     2   ar
    28    20    14   ar
@<TRIPOS>MOLECULE
*****
 26 28 0 0 0
SMALL
GASTEIGER

@<TRIPOS>ATOM
      1 C          63.5017   90.6645   13.4809 C.3     1  UNL1        0.2360
      2 N          64.5631   91.4110   12.7286 N.ar    1  UNL1       -0.2923
      3 C          65.8728   92.0010   13.1607 C.ar    1  UNL1        0.1796
      4 N          66.5143   92.6335   11.9614 N.ar    1  UNL1       -0.2226
      5 C          65.6011   92.4345   10.7881 C.ar    1  UNL1        0.1148
      6 C          64.3952   91.6789   11.2623 C.ar    1  UNL1        0.0770
      7 C          63.1659   91.2003   10.5483 C.3     1  UNL1        0.1409
      8 N          62.1046   90.4537   11.3007 N.3     1  UNL1       -0.1490
      9 S          62.2724   90.1858   12.7669 S.O2    1  UNL1        0.0629
     10 O          60.9408   89.5356   12.5341 O.2     1  UNL1       -0.1555
     11 O          61.9778   89.6921   14.1524 O.2     1  UNL1       -0.1555
     12 C          60.8752   89.9750   10.5866 C.3     1  UNL1        0.1019
     13 C          59.5803   90.7154   10.7443 C.3     1  UNL1        0.0240
     14 C          60.9409   88.7561    9.7151 C.ar    1  UNL1       -0.0061
     15 C          62.0767   87.7875    9.8644 C.ar    1  UNL1       -0.0021
     16 C          62.1423   86.5686    8.9929 C.ar    1  UNL1        0.0111
     17 C          61.0723   86.3180    7.9719 C.ar    1  UNL1        0.0577
     18 CL         61.1380   85.0990    7.1003 Cl      1  UNL1       -0.0822
     19 C          59.9366   87.2864    7.8225 C.ar    1  UNL1        0.0111
     20 C          59.8710   88.5055    8.6942 C.ar    1  UNL1       -0.0021
     21 C          63.6695   90.3965   14.9473 C.3     1  UNL1        0.0761
     22 C          63.7719   88.9852   15.4448 C.3     1  UNL1        0.0966
     23 C          64.5106   88.5991   14.1978 C.3     1  UNL1        0.0298
     24 C          63.0331   89.3712   16.6919 C.3     1  UNL1        0.0298
     25 C          64.3627   86.4897   15.0279 C.3     1  UNL1        0.1739
     26 O          63.8742   87.5738   15.9424 O.3     1  UNL1       -0.3557
@<TRIPOS>BOND
     1    25    26    1
     2    26    22    1
     3    22    23    1
     4    22    24    1
     5    22    21    1
     6    21     1    1
     7     1     2    1
     8     2     3   ar
     9     3     4   ar
    10     4     5   ar
    11     5     6   ar
    12     6     7    1
    13     7     8    1
    14     8    12    1
    15    12    13    1
    16    12    14    1
    17    14    15   ar
    18    15    16   ar
    19    16    17   ar
    20    17    18    1
    21    17    19   ar
    22    19    20   ar
    23     8     9    1
    24     9    10    2
    25     9    11    2
    26     9     1    1
    27     6     2   ar
    28    20    14   ar
@<TRIPOS>MOLECULE
*****
 26 28 0 0 0
SMALL
GASTEIGER

@<TRIPOS>ATOM
      1 C          65.1350   92.0024   12.9487 C.3     1  UNL1        0.2360
      2 N          64.2772   91.7159   11.7521 N.ar    1  UNL1       -0.2923
      3 C          64.2619   92.2918   10.3671 C.ar    1  UNL1        0.1796
      4 N          63.1725   91.6099    9.5936 N.ar    1  UNL1       -0.2226
      5 C          62.5145   90.6126   10.5005 C.ar    1  UNL1        0.1148
      6 C          63.1973   90.6781   11.8345 C.ar    1  UNL1        0.0770
      7 C          62.9751   89.9268   13.1137 C.3     1  UNL1        0.1409
      8 N          63.8329   90.2133   14.3104 N.3     1  UNL1       -0.1490
      9 S          64.9128   91.2511   14.2279 S.O2    1  UNL1        0.0629
     10 O          65.0867   90.8066   15.6501 O.2     1  UNL1       -0.1555
     11 O          66.0531   92.1345   14.6393 O.2     1  UNL1       -0.1555
     12 C          63.6108   89.4620   15.5896 C.3     1  UNL1        0.1019
     13 C          63.2919   90.2076   16.8515 C.3     1  UNL1        0.0240
     14 C          63.7075   87.9653   15.6068 C.ar    1  UNL1       -0.0061
     15 C          63.0602   87.1845   16.7120 C.ar    1  UNL1       -0.0021
     16 C          63.1569   85.6878   16.7293 C.ar    1  UNL1        0.0111
     17 C          63.9009   84.9717   15.6412 C.ar    1  UNL1        0.0577
     18 CL         63.9976   83.4749   15.6585 Cl      1  UNL1       -0.0822
     19 C          64.5482   85.7524   14.5360 C.ar    1  UNL1        0.0111
     20 C          64.4514   87.2492   14.5188 C.ar    1  UNL1       -0.0021
     21 C          66.2149   93.0402   12.8664 C.3     1  UNL1        0.0761
     22 C          66.9178   93.2894   11.5649 C.3     1  UNL1        0.0966
     23 C          66.2519   94.6295   11.4619 C.3     1  UNL1        0.0298
     24 C          67.5836   91.9492   11.6679 C.3     1  UNL1        0.0298
     25 C          68.2176   92.3924    9.5019 C.3     1  UNL1        0.1739
     26 O          67.6207   93.5386   10.2634 O.3     1  UNL1       -0.3557
@<TRIPOS>BOND
     1    25    26    1
     2    26    22    1
     3    22    23    1
     4    22    24    1
     5    22    21    1
     6    21     1    1
     7     1     2    1
     8     2     3   ar
     9     3     4   ar
    10     4     5   ar
    11     5     6   ar
    12     6     7    1
    13     7     8    1
    14     8    12    1
    15    12    13    1
    16    12    14    1
    17    14    15   ar
    18    15    16   ar
    19    16    17   ar
    20    17    18    1
    21    17    19   ar
    22    19    20   ar
    23     8     9    1
    24     9    10    2
    25     9    11    2
    26     9     1    1
    27     6     2   ar
    28    20    14   ar
@<TRIPOS>MOLECULE
*****
 26 28 0 0 0
SMALL
GASTEIGER

@<TRIPOS>ATOM
      1 C          64.6659   91.7372   12.9463 C.3     1  UNL1        0.2360
      2 N          64.3947   91.4590   14.3950 N.ar    1  UNL1       -0.2923
      3 C          65.0108   91.9964   15.6527 C.ar    1  UNL1        0.1796
      4 N          64.3265   91.3462   16.8185 N.ar    1  UNL1       -0.2226
      5 C          63.2875   90.4071   16.2813 C.ar    1  UNL1        0.1148
      6 C          63.3297   90.4767   14.7836 C.ar    1  UNL1        0.0770
      7 C          62.5359   89.7727   13.7233 C.3     1  UNL1        0.1409
      8 N          62.8071   90.0509   12.2745 N.3     1  UNL1       -0.1490
      9 S          63.8721   91.0331   11.8860 S.O2    1  UNL1        0.0629
     10 O          63.3900   90.6204   10.5267 O.2     1  UNL1       -0.1555
     11 O          64.7697   91.8720   11.0254 O.2     1  UNL1       -0.1555
     12 C          62.0132   89.3468   11.2142 C.3     1  UNL1        0.1019
     13 C          60.9312   90.0789   10.4772 C.3     1  UNL1        0.0240
     14 C          62.3014   87.9107   10.8910 C.ar    1  UNL1       -0.0061
     15 C          62.6732   86.9554   11.9862 C.ar    1  UNL1       -0.0021
     16 C          62.9613   85.5194   11.6631 C.ar    1  UNL1        0.0111
     17 C          62.8777   85.0384   10.2446 C.ar    1  UNL1        0.0577
     18 CL         63.1659   83.6022    9.9215 Cl      1  UNL1       -0.0822
     19 C          62.5059   85.9936    9.1495 C.ar    1  UNL1        0.0111
     20 C          62.2178   87.4297    9.4727 C.ar    1  UNL1       -0.0021
     21 C          65.7309   92.7194   12.5576 C.3     1  UNL1        0.0761
     22 C          66.9540   92.8765   13.4117 C.3     1  UNL1        0.0966
     23 C          66.5244   94.2680   13.7709 C.3     1  UNL1        0.0298
     24 C          67.3835   91.4849   13.0525 C.3     1  UNL1        0.0298
     25 C          68.0493   93.5351   15.6737 C.3     1  UNL1        0.1739
     26 O          68.1770   93.0335   14.2658 O.3     1  UNL1       -0.3557
@<TRIPOS>BOND
     1    25    26    1
     2    26    22    1
     3    22    23    1
     4    22    24    1
     5    22    21    1
     6    21     1    1
     7     1     2    1
     8     2     3   ar
     9     3     4   ar
    10     4     5   ar
    11     5     6   ar
    12     6     7    1
    13     7     8    1
    14     8    12    1
    15    12    13    1
    16    12    14    1
    17    14    15   ar
    18    15    16   ar
    19    16    17   ar
    20    17    18    1
    21    17    19   ar
    22    19    20   ar
    23     8     9    1
    24     9    10    2
    25     9    11    2
    26     9     1    1
    27     6     2   ar
    28    20    14   ar
@<TRIPOS>MOLECULE
*****
 26 28 0 0 0
SMALL
GASTEIGER

@<TRIPOS>ATOM
      1 C          61.7797   86.9897   11.0367 C.3     1  UNL1        0.2360
      2 N          60.9556   87.6090    9.9471 N.ar    1  UNL1       -0.2923
      3 C          60.0885   87.0091    8.8802 C.ar    1  UNL1        0.1796
      4 N          59.5085   88.1300    8.0696 N.ar    1  UNL1       -0.2226
      5 C          60.0171   89.4227    8.6355 C.ar    1  UNL1        0.1148
      6 C          60.9115   89.1008    9.7958 C.ar    1  UNL1        0.0770
      7 C          61.6914   89.9732   10.7342 C.3     1  UNL1        0.1409
      8 N          62.5154   89.3539   11.8239 N.3     1  UNL1       -0.1490
      9 S          62.5596   87.8622   11.9751 S.O2    1  UNL1        0.0629
     10 O          63.4640   88.2652   13.1021 O.2     1  UNL1       -0.1555
     11 O          62.9178   86.5104   12.5177 O.2     1  UNL1       -0.1555
     12 C          63.2954   90.2264   12.7623 C.3     1  UNL1        0.1019
     13 C          63.1395   90.0604   14.2449 C.3     1  UNL1        0.0240
     14 C          64.2310   91.2647   12.2181 C.ar    1  UNL1       -0.0061
     15 C          65.2893   91.8571   13.1008 C.ar    1  UNL1       -0.0021
     16 C          66.2250   92.8955   12.5567 C.ar    1  UNL1        0.0111
     17 C          66.1025   93.3415   11.1297 C.ar    1  UNL1        0.0577
     18 CL         67.0382   94.3800   10.5855 Cl      1  UNL1       -0.0822
     19 C          65.0442   92.7492   10.2470 C.ar    1  UNL1        0.0111
     20 C          64.1085   91.7107   10.7913 C.ar    1  UNL1       -0.0021
     21 C          61.8239   85.4980   11.1880 C.3     1  UNL1        0.0761
     22 C          62.8379   84.6967   10.4267 C.3     1  UNL1        0.0966
     23 C          62.9369   83.7335   11.5723 C.3     1  UNL1        0.0298
     24 C          62.7390   85.6600    9.2811 C.3     1  UNL1        0.0298
     25 C          64.3889   82.6203   10.2449 C.3     1  UNL1        0.1739
     26 O          63.8520   83.8955    9.6654 O.3     1  UNL1       -0.3557
@<TRIPOS>BOND
     1    25    26    1
     2    26    22    1
     3    22    23    1
     4    22    24    1
     5    22    21    1
     6    21     1    1
     7     1     2    1
     8     2     3   ar
     9     3     4   ar
    10     4     5   ar
    11     5     6   ar
    12     6     7    1
    13     7     8    1
    14     8    12    1
    15    12    13    1
    16    12    14    1
    17    14    15   ar
    18    15    16   ar
    19    16    17   ar
    20    17    18    1
    21    17    19   ar
    22    19    20   ar
    23     8     9    1
    24     9    10    2
    25     9    11    2
    26     9     1    1
    27     6     2   ar
    28    20    14   ar
@<TRIPOS>MOLECULE
*****
 26 28 0 0 0
SMALL
GASTEIGER

@<TRIPOS>ATOM
      1 C          61.4699   94.2226   -0.4257 C.3     1  UNL1        0.2360
      2 N          60.9305   95.2174    0.5589 N.ar    1  UNL1       -0.2923
      3 C          61.4410   95.6936    1.8865 C.ar    1  UNL1        0.1796
      4 N          60.4713   96.7061    2.4198 N.ar    1  UNL1       -0.2226
      5 C          59.3615   96.8557    1.4218 C.ar    1  UNL1        0.1148
      6 C          59.6453   95.9356    0.2717 C.ar    1  UNL1        0.0770
      7 C          58.8995   95.6590   -1.0000 C.3     1  UNL1        0.1409
      8 N          59.4389   94.6641   -1.9846 N.3     1  UNL1       -0.1490
      9 S          60.7240   93.9460   -1.6974 S.O2    1  UNL1        0.0629
     10 O          60.3835   93.3477   -3.0302 O.2     1  UNL1       -0.1555
     11 O          61.8910   93.0200   -1.8731 O.2     1  UNL1       -0.1555
     12 C          58.6931   94.3875   -3.2563 C.3     1  UNL1        0.1019
     13 C          58.8862   95.2781   -4.4478 C.3     1  UNL1        0.0240
     14 C          57.7542   93.2206   -3.3365 C.ar    1  UNL1       -0.0061
     15 C          57.0002   92.7793   -2.1171 C.ar    1  UNL1       -0.0021
     16 C          56.0614   91.6123   -2.1973 C.ar    1  UNL1        0.0111
     17 C          55.8764   90.8864   -3.4970 C.ar    1  UNL1        0.0577
     18 CL         54.9375   89.7193   -3.5772 Cl      1  UNL1       -0.0822
     19 C          56.6303   91.3276   -4.7164 C.ar    1  UNL1        0.0111
     20 C          57.5692   92.4947   -4.6361 C.ar    1  UNL1       -0.0021
     21 C          62.7551   93.5043   -0.1385 C.3     1  UNL1        0.0761
     22 C          63.0729   93.0660    1.2603 C.3     1  UNL1        0.0966
     23 C          64.3143   93.9078    1.2420 C.3     1  UNL1        0.0298
     24 C          61.8315   92.2243    1.2787 C.3     1  UNL1        0.0298
     25 C          63.4266   91.1668    2.9976 C.3     1  UNL1        0.1739
     26 O          63.3908   92.6278    2.6592 O.3     1  UNL1       -0.3557
@<TRIPOS>BOND
     1    25    26    1
     2    26    22    1
     3    22    23    1
     4    22    24    1
     5    22    21    1
     6    21     1    1
     7     1     2    1
     8     2     3   ar
     9     3     4   ar
    10     4     5   ar
    11     5     6   ar
    12     6     7    1
    13     7     8    1
    14     8    12    1
    15    12    13    1
    16    12    14    1
    17    14    15   ar
    18    15    16   ar
    19    16    17   ar
    20    17    18    1
    21    17    19   ar
    22    19    20   ar
    23     8     9    1
    24     9    10    2
    25     9    11    2
    26     9     1    1
    27     6     2   ar
    28    20    14   ar
@<TRIPOS>MOLECULE
*****
 26 28 0 0 0
SMALL
GASTEIGER

@<TRIPOS>ATOM
      1 C          61.9389   94.1087   -0.2056 C.3     1  UNL1        0.2360
      2 N          61.3471   93.5078    1.0349 N.ar    1  UNL1       -0.2923
      3 C          61.9753   92.8952    2.2515 C.ar    1  UNL1        0.1796
      4 N          60.8741   92.4615    3.1731 N.ar    1  UNL1       -0.2226
      5 C          59.5654   92.8061    2.5261 C.ar    1  UNL1        0.1148
      6 C          59.8577   93.4527    1.2046 C.ar    1  UNL1        0.0770
      7 C          58.9602   93.9985    0.1339 C.3     1  UNL1        0.1409
      8 N          59.5520   94.5994   -1.1066 N.3     1  UNL1       -0.1490
      9 S          61.0412   94.6545   -1.2763 S.O2    1  UNL1        0.0629
     10 O          60.6087   95.2969   -2.5610 O.2     1  UNL1       -0.1555
     11 O          62.3804   94.9327   -1.8922 O.2     1  UNL1       -0.1555
     12 C          58.6543   95.1452   -2.1773 C.3     1  UNL1        0.1019
     13 C          58.5252   96.6279   -2.3639 C.3     1  UNL1        0.0240
     14 C          57.8858   94.2084   -3.0613 C.ar    1  UNL1       -0.0061
     15 C          58.2342   92.7496   -3.0909 C.ar    1  UNL1       -0.0021
     16 C          57.4657   91.8128   -3.9749 C.ar    1  UNL1        0.0111
     17 C          56.3487   92.3346   -4.8294 C.ar    1  UNL1        0.0577
     18 CL         55.5801   91.3976   -5.7135 Cl      1  UNL1       -0.0822
     19 C          56.0003   93.7932   -4.7999 C.ar    1  UNL1        0.0111
     20 C          56.7689   94.7301   -3.9158 C.ar    1  UNL1       -0.0021
     21 C          63.4283   94.1638   -0.3754 C.3     1  UNL1        0.0761
     22 C          64.2996   94.5730    0.7750 C.3     1  UNL1        0.0966
     23 C          63.5931   95.8946    0.8400 C.3     1  UNL1        0.0298
     24 C          65.0060   93.2514    0.7100 C.3     1  UNL1        0.0298
     25 C          64.9645   96.3128    2.5863 C.3     1  UNL1        0.1739
     26 O          65.1709   94.9822    1.9254 O.3     1  UNL1       -0.3557
@<TRIPOS>BOND
     1    25    26    1
     2    26    22    1
     3    22    23    1
     4    22    24    1
     5    22    21    1
     6    21     1    1
     7     1     2    1
     8     2     3   ar
     9     3     4   ar
    10     4     5   ar
    11     5     6   ar
    12     6     7    1
    13     7     8    1
    14     8    12    1
    15    12    13    1
    16    12    14    1
    17    14    15   ar
    18    15    16   ar
    19    16    17   ar
    20    17    18    1
    21    17    19   ar
    22    19    20   ar
    23     8     9    1
    24     9    10    2
    25     9    11    2
    26     9     1    1
    27     6     2   ar
    28    20    14   ar
