@<TRIPOS>MOLECULE
*****
 33 37 0 0 0
SMALL
GASTEIGER

@<TRIPOS>ATOM
      1 C          63.5540   89.5828   12.7374 C.ar    1  UNL1        0.1213
      2 N          63.3564   88.1031   12.8847 N.ar    1  UNL1       -0.2233
      3 C          62.7929   87.3048   11.7467 C.ar    1  UNL1        0.1654
      4 C          62.4880   85.8435   11.5999 C.ar    1  UNL1        0.0569
      5 C          61.9336   85.6215   10.2238 C.ar    1  UNL1        0.1236
      6 N          61.8959   86.9457    9.5202 N.ar    1  UNL1       -0.1620
      7 N          62.4269   87.9861   10.4614 N.ar    1  UNL1       -0.2076
      8 C          62.6245   89.4656   10.3141 C.ar    1  UNL1        0.1404
      9 C          63.1881   90.2640   11.4521 C.ar    1  UNL1        0.1753
     10 C          66.8051   92.5138   15.6904 C.3     1  UNL1        0.1538
     11 N          65.6119   91.7283   15.2327 N.ar    1  UNL1       -0.2473
     12 C          65.4635   91.0424   13.9070 C.ar    1  UNL1        0.0983
     13 C          64.1176   90.3811   13.8754 C.ar    1  UNL1        0.0603
     14 C          63.4341   90.6583   15.1815 C.ar    1  UNL1        0.1232
     15 N          64.3576   91.4910   16.0204 N.ar    1  UNL1       -0.1675
     16 C          62.7002   84.7892   12.6455 C.ar    1  UNL1        0.0107
     17 C          63.1801   83.4247   12.2482 C.ar    1  UNL1        0.0210
     18 C          63.3923   82.3703   13.2938 C.ar    1  UNL1        0.1021
     19 N          63.1247   82.6805   14.7368 N.ar    1  UNL1       -0.2101
     20 C          62.6449   84.0450   15.1341 C.ar    1  UNL1        0.2248
     21 C          62.4326   85.0994   14.0885 C.ar    1  UNL1        0.0579
     22 O          62.3773   84.3552   16.5771 O.3     1  UNL1       -0.4640
     23 C          62.6522   85.7292   17.1123 C.3     1  UNL1        0.1678
     24 C          63.0966   87.1446   16.8910 C.3     1  UNL1        0.0473
     25 C          62.6837   86.6937   18.2607 C.3     1  UNL1        0.0473
     26 O          63.3857   91.7436   11.3048 O.3     1  UNL1       -0.4723
     27 C          64.5799   92.2709   10.5660 C.3     1  UNL1        0.2080
     28 C          65.4352   93.3360   11.1859 C.3     1  UNL1        0.0742
     29 C          66.6890   93.7865   10.4967 C.3     1  UNL1        0.0921
     30 C          67.2022   92.3771   10.5089 C.3     1  UNL1        0.0294
     31 C          66.1757   95.1960   10.4845 C.3     1  UNL1        0.0294
     32 O          67.9427   94.2371    9.8075 O.3     1  UNL1       -0.3866
     33 H          68.5259   93.4750    9.6664 H       1  UNL1        0.2102
@<TRIPOS>BOND
     1    10    11    1
     2    11    12   ar
     3    12    13   ar
     4    13     1    1
     5     1     2   ar
     6     2     3   ar
     7     3     4   ar
     8     4    16    1
     9    16    17   ar
    10    17    18   ar
    11    18    19   ar
    12    19    20   ar
    13    20    22    1
    14    22    23    1
    15    23    24    1
    16    24    25    1
    17    20    21   ar
    18     4     5   ar
    19     5     6   ar
    20     6     7   ar
    21     7     8   ar
    22     8     9   ar
    23     9    26    1
    24    26    27    1
    25    27    28    1
    26    28    29    1
    27    29    30    1
    28    29    31    1
    29    29    32    1
    30    13    14   ar
    31    14    15   ar
    32    15    11   ar
    33     9     1   ar
    34     7     3   ar
    35    21    16   ar
    36    25    23    1
    37    32    33    1
@<TRIPOS>MOLECULE
*****
 33 37 0 0 0
SMALL
GASTEIGER

@<TRIPOS>ATOM
      1 C          63.6705   89.6787   12.9197 C.ar    1  UNL1        0.1213
      2 N          63.5390   88.1905   13.0539 N.ar    1  UNL1       -0.2233
      3 C          62.9594   87.3844   11.9295 C.ar    1  UNL1        0.1654
      4 C          62.7074   85.9139   11.7746 C.ar    1  UNL1        0.0569
      5 C          62.1036   85.6871   10.4204 C.ar    1  UNL1        0.1236
      6 N          61.9824   87.0175    9.7383 N.ar    1  UNL1       -0.1620
      7 N          62.5113   88.0665   10.6709 N.ar    1  UNL1       -0.2076
      8 C          62.6429   89.5547   10.5368 C.ar    1  UNL1        0.1404
      9 C          63.2225   90.3608   11.6612 C.ar    1  UNL1        0.1753
     10 C          66.9841   92.5850   15.8274 C.3     1  UNL1        0.1538
     11 N          65.7732   91.8207   15.3806 N.ar    1  UNL1       -0.2473
     12 C          65.6120   91.1130   14.0679 C.ar    1  UNL1        0.0983
     13 C          64.2501   90.4848   14.0441 C.ar    1  UNL1        0.0603
     14 C          63.5696   90.8041   15.3422 C.ar    1  UNL1        0.1232
     15 N          64.5109   91.6297   16.1682 N.ar    1  UNL1       -0.1675
     16 C          63.0067   84.8558   12.7949 C.ar    1  UNL1        0.0107
     17 C          63.6323   85.2329   14.1050 C.ar    1  UNL1        0.0210
     18 C          63.9316   84.1749   15.1254 C.ar    1  UNL1        0.1021
     19 N          63.6053   82.7398   14.8356 N.ar    1  UNL1       -0.2101
     20 C          62.9797   82.3628   13.5255 C.ar    1  UNL1        0.2248
     21 C          62.6804   83.4207   12.5051 C.ar    1  UNL1        0.0579
     22 O          62.6535   80.9277   13.2356 O.3     1  UNL1       -0.4640
     23 C          62.8116   80.3887   11.8448 C.3     1  UNL1        0.1678
     24 C          62.7837   79.2336   10.8883 C.3     1  UNL1        0.0473
     25 C          63.1135   80.6102   10.3923 C.3     1  UNL1        0.0473
     26 O          63.3540   91.8490   11.5270 O.3     1  UNL1       -0.4723
     27 C          64.3541   92.4305   10.5723 C.3     1  UNL1        0.2080
     28 C          65.8222   92.2826   10.8418 C.3     1  UNL1        0.0742
     29 C          66.7753   93.3595   10.4153 C.3     1  UNL1        0.0921
     30 C          67.8061   92.3189   10.0913 C.3     1  UNL1        0.0294
     31 C          65.7446   94.4000   10.7393 C.3     1  UNL1        0.0294
     32 O          67.7284   94.4363    9.9888 O.3     1  UNL1       -0.3866
     33 H          68.5623   94.0341    9.6994 H       1  UNL1        0.2102
@<TRIPOS>BOND
     1    10    11    1
     2    11    12   ar
     3    12    13   ar
     4    13     1    1
     5     1     2   ar
     6     2     3   ar
     7     3     4   ar
     8     4    16    1
     9    16    17   ar
    10    17    18   ar
    11    18    19   ar
    12    19    20   ar
    13    20    22    1
    14    22    23    1
    15    23    24    1
    16    24    25    1
    17    20    21   ar
    18     4     5   ar
    19     5     6   ar
    20     6     7   ar
    21     7     8   ar
    22     8     9   ar
    23     9    26    1
    24    26    27    1
    25    27    28    1
    26    28    29    1
    27    29    30    1
    28    29    31    1
    29    29    32    1
    30    13    14   ar
    31    14    15   ar
    32    15    11   ar
    33     9     1   ar
    34     7     3   ar
    35    21    16   ar
    36    25    23    1
    37    32    33    1
@<TRIPOS>MOLECULE
*****
 33 37 0 0 0
SMALL
GASTEIGER

@<TRIPOS>ATOM
      1 C          63.8024   89.4881   13.6036 C.ar    1  UNL1        0.1213
      2 N          63.7993   88.0142   13.3247 N.ar    1  UNL1       -0.2233
      3 C          63.6888   87.0368   14.4572 C.ar    1  UNL1        0.1654
      4 C          63.6596   85.5375   14.4898 C.ar    1  UNL1        0.0569
      5 C          63.5341   85.1073   15.9213 C.ar    1  UNL1        0.1236
      6 N          63.4857   86.3408   16.7734 N.ar    1  UNL1       -0.1620
      7 N          63.5813   87.5333   15.8686 N.ar    1  UNL1       -0.2076
      8 C          63.5844   89.0071   16.1475 C.ar    1  UNL1        0.1404
      9 C          63.6950   89.9846   15.0149 C.ar    1  UNL1        0.1753
     10 C          65.5111   93.3978   10.4932 C.3     1  UNL1        0.1538
     11 N          64.6984   92.2625   11.0414 N.ar    1  UNL1       -0.2473
     12 C          64.9735   91.5141   12.3119 C.ar    1  UNL1        0.0983
     13 C          63.9129   90.4654   12.4711 C.ar    1  UNL1        0.0603
     14 C          62.9823   90.5656   11.2989 C.ar    1  UNL1        0.1232
     15 N          63.4677   91.6763   10.4153 N.ar    1  UNL1       -0.1675
     16 C          63.7415   84.6280   13.2998 C.ar    1  UNL1        0.0107
     17 C          64.2754   83.2350   13.4558 C.ar    1  UNL1        0.0210
     18 C          64.3574   82.3254   12.2658 C.ar    1  UNL1        0.1021
     19 N          63.9053   82.8089   10.9198 N.ar    1  UNL1       -0.2101
     20 C          63.3714   84.2020   10.7638 C.ar    1  UNL1        0.2248
     21 C          63.2894   85.1115   11.9538 C.ar    1  UNL1        0.0579
     22 O          62.9194   84.6855    9.4177 O.3     1  UNL1       -0.4640
     23 C          62.0655   85.9140    9.3100 C.3     1  UNL1        0.1678
     24 C          60.7533   86.5586    8.9745 C.3     1  UNL1        0.0473
     25 C          61.8987   87.3972    9.4590 C.3     1  UNL1        0.0473
     26 O          63.6981   91.4584   15.2938 O.3     1  UNL1       -0.4723
     27 C          64.9081   92.1043   15.9010 C.3     1  UNL1        0.2080
     28 C          66.2579   91.9020   15.2789 C.3     1  UNL1        0.0742
     29 C          67.3036   92.9715   15.3918 C.3     1  UNL1        0.0921
     30 C          66.5710   93.7951   14.3745 C.3     1  UNL1        0.0294
     31 C          68.0363   92.1478   16.4090 C.3     1  UNL1        0.0294
     32 O          68.3493   94.0409   15.5046 O.3     1  UNL1       -0.3866
     33 H          68.1281   94.7736   14.9087 H       1  UNL1        0.2102
@<TRIPOS>BOND
     1    10    11    1
     2    11    12   ar
     3    12    13   ar
     4    13     1    1
     5     1     2   ar
     6     2     3   ar
     7     3     4   ar
     8     4    16    1
     9    16    17   ar
    10    17    18   ar
    11    18    19   ar
    12    19    20   ar
    13    20    22    1
    14    22    23    1
    15    23    24    1
    16    24    25    1
    17    20    21   ar
    18     4     5   ar
    19     5     6   ar
    20     6     7   ar
    21     7     8   ar
    22     8     9   ar
    23     9    26    1
    24    26    27    1
    25    27    28    1
    26    28    29    1
    27    29    30    1
    28    29    31    1
    29    29    32    1
    30    13    14   ar
    31    14    15   ar
    32    15    11   ar
    33     9     1   ar
    34     7     3   ar
    35    21    16   ar
    36    25    23    1
    37    32    33    1
@<TRIPOS>MOLECULE
*****
 33 37 0 0 0
SMALL
GASTEIGER

@<TRIPOS>ATOM
      1 C          63.2718   85.1027   12.4691 C.ar    1  UNL1        0.1213
      2 N          62.5211   85.9715   11.5039 N.ar    1  UNL1       -0.2233
      3 C          62.5832   87.4646   11.6341 C.ar    1  UNL1        0.1654
      4 C          61.9539   88.5686   10.8371 C.ar    1  UNL1        0.0569
      5 C          62.3777   89.8751   11.4399 C.ar    1  UNL1        0.1236
      6 N          63.2689   89.5786   12.6094 N.ar    1  UNL1       -0.1620
      7 N          63.3959   88.0888   12.7294 N.ar    1  UNL1       -0.2076
      8 C          64.1466   87.2200   13.6946 C.ar    1  UNL1        0.1404
      9 C          64.0846   85.7269   13.5644 C.ar    1  UNL1        0.1753
     10 C          62.1654   80.0230   13.3929 C.3     1  UNL1        0.1538
     11 N          62.7012   81.2748   12.7636 N.ar    1  UNL1       -0.2473
     12 C          62.5050   82.6717   13.2735 C.ar    1  UNL1        0.0983
     13 C          63.2098   83.6096   12.3389 C.ar    1  UNL1        0.0603
     14 C          63.8416   82.7924   11.2513 C.ar    1  UNL1        0.1232
     15 N          63.5273   81.3494   11.5137 N.ar    1  UNL1       -0.1675
     16 C          61.0580   88.3962    9.6464 C.ar    1  UNL1        0.0107
     17 C          60.2855   89.5663    9.1135 C.ar    1  UNL1        0.0210
     18 C          59.3896   89.3941    7.9228 C.ar    1  UNL1        0.1021
     19 N          59.2663   88.0517    7.2650 N.ar    1  UNL1       -0.2101
     20 C          60.0388   86.8816    7.7979 C.ar    1  UNL1        0.2248
     21 C          60.9347   87.0538    8.9886 C.ar    1  UNL1        0.0579
     22 O          59.9155   85.5392    7.1401 O.3     1  UNL1       -0.4640
     23 C          61.1281   84.8745    6.5589 C.3     1  UNL1        0.1678
     24 C          61.7759   84.0861    5.4594 C.3     1  UNL1        0.0473
     25 C          62.5806   84.5118    6.6516 C.3     1  UNL1        0.0473
     26 O          64.8353   84.8581   14.5296 O.3     1  UNL1       -0.4723
     27 C          64.2260   84.5093   15.8552 C.3     1  UNL1        0.2080
     28 C          63.7926   85.5983   16.7912 C.3     1  UNL1        0.0742
     29 C          62.3473   85.9932   16.8644 C.3     1  UNL1        0.0921
     30 C          61.9668   84.7341   16.1434 C.3     1  UNL1        0.0294
     31 C          62.7279   87.2523   17.5853 C.3     1  UNL1        0.0294
     32 O          60.9021   86.3881   16.9376 O.3     1  UNL1       -0.3866
     33 H          60.3585   85.7055   16.5139 H       1  UNL1        0.2102
@<TRIPOS>BOND
     1    10    11    1
     2    11    12   ar
     3    12    13   ar
     4    13     1    1
     5     1     2   ar
     6     2     3   ar
     7     3     4   ar
     8     4    16    1
     9    16    17   ar
    10    17    18   ar
    11    18    19   ar
    12    19    20   ar
    13    20    22    1
    14    22    23    1
    15    23    24    1
    16    24    25    1
    17    20    21   ar
    18     4     5   ar
    19     5     6   ar
    20     6     7   ar
    21     7     8   ar
    22     8     9   ar
    23     9    26    1
    24    26    27    1
    25    27    28    1
    26    28    29    1
    27    29    30    1
    28    29    31    1
    29    29    32    1
    30    13    14   ar
    31    14    15   ar
    32    15    11   ar
    33     9     1   ar
    34     7     3   ar
    35    21    16   ar
    36    25    23    1
    37    32    33    1
@<TRIPOS>MOLECULE
*****
 33 37 0 0 0
SMALL
GASTEIGER

@<TRIPOS>ATOM
      1 C          62.5344   85.6868   11.2897 C.ar    1  UNL1        0.1213
      2 N          63.0332   86.9170   11.9882 N.ar    1  UNL1       -0.2233
      3 C          63.6387   86.8092   13.3563 C.ar    1  UNL1        0.1654
      4 C          64.2121   87.8390   14.2841 C.ar    1  UNL1        0.0569
      5 C          64.6731   87.1375   15.5272 C.ar    1  UNL1        0.1236
      6 N          64.3845   85.6742   15.3677 N.ar    1  UNL1       -0.1620
      7 N          63.7453   85.4713   14.0260 N.ar    1  UNL1       -0.2076
      8 C          63.2464   84.2411   13.3276 C.ar    1  UNL1        0.1404
      9 C          62.6410   84.3488   11.9594 C.ar    1  UNL1        0.1753
     10 C          59.1817   86.7496    7.3513 C.3     1  UNL1        0.1538
     11 N          60.3879   86.2831    8.1113 N.ar    1  UNL1       -0.2473
     12 C          60.5871   86.3800    9.5948 C.ar    1  UNL1        0.0983
     13 C          61.9290   85.7946    9.9216 C.ar    1  UNL1        0.0603
     14 C          62.5591   85.3358    8.6399 C.ar    1  UNL1        0.1232
     15 N          61.6067   85.6378    7.5211 N.ar    1  UNL1       -0.1675
     16 C          64.3077   89.3117   14.0158 C.ar    1  UNL1        0.0107
     17 C          63.8043   89.8720   12.7187 C.ar    1  UNL1        0.0210
     18 C          63.8998   91.3447   12.4503 C.ar    1  UNL1        0.1021
     19 N          64.4989   92.2572   13.4792 N.ar    1  UNL1       -0.2101
     20 C          65.0023   91.6969   14.7763 C.ar    1  UNL1        0.2248
     21 C          64.9067   90.2241   15.0447 C.ar    1  UNL1        0.0579
     22 O          65.6014   92.6093   15.8052 O.3     1  UNL1       -0.4640
     23 C          67.0897   92.7805   15.8802 C.3     1  UNL1        0.1678
     24 C          68.3018   93.6603   15.7984 C.3     1  UNL1        0.0473
     25 C          68.4554   92.1973   16.0920 C.3     1  UNL1        0.0473
     26 O          62.1422   83.1187   11.2610 O.3     1  UNL1       -0.4723
     27 C          62.9658   81.8651   11.2700 C.3     1  UNL1        0.2080
     28 C          62.6107   80.7411   12.1976 C.3     1  UNL1        0.0742
     29 C          62.6072   80.9653   13.6808 C.3     1  UNL1        0.0921
     30 C          61.1161   80.8036   13.7016 C.3     1  UNL1        0.0294
     31 C          64.0983   81.1269   13.6599 C.3     1  UNL1        0.0294
     32 O          62.6036   81.1895   15.1639 O.3     1  UNL1       -0.3866
     33 H          61.6937   81.1392   15.4963 H       1  UNL1        0.2102
@<TRIPOS>BOND
     1    10    11    1
     2    11    12   ar
     3    12    13   ar
     4    13     1    1
     5     1     2   ar
     6     2     3   ar
     7     3     4   ar
     8     4    16    1
     9    16    17   ar
    10    17    18   ar
    11    18    19   ar
    12    19    20   ar
    13    20    22    1
    14    22    23    1
    15    23    24    1
    16    24    25    1
    17    20    21   ar
    18     4     5   ar
    19     5     6   ar
    20     6     7   ar
    21     7     8   ar
    22     8     9   ar
    23     9    26    1
    24    26    27    1
    25    27    28    1
    26    28    29    1
    27    29    30    1
    28    29    31    1
    29    29    32    1
    30    13    14   ar
    31    14    15   ar
    32    15    11   ar
    33     9     1   ar
    34     7     3   ar
    35    21    16   ar
    36    25    23    1
    37    32    33    1
@<TRIPOS>MOLECULE
*****
 33 37 0 0 0
SMALL
GASTEIGER

@<TRIPOS>ATOM
      1 C          62.7496   85.3515   11.5606 C.ar    1  UNL1        0.1213
      2 N          63.0366   86.4528   12.5378 N.ar    1  UNL1       -0.2233
      3 C          63.6775   86.1370   13.8567 C.ar    1  UNL1        0.1654
      4 C          64.0777   87.0062   15.0119 C.ar    1  UNL1        0.0569
      5 C          64.6789   86.1263   16.0675 C.ar    1  UNL1        0.1236
      6 N          64.6503   84.7134   15.5648 N.ar    1  UNL1       -0.1620
      7 N          64.0314   84.7200   14.1984 N.ar    1  UNL1       -0.2076
      8 C          63.7444   83.6187   13.2213 C.ar    1  UNL1        0.1404
      9 C          63.1034   83.9345   11.9023 C.ar    1  UNL1        0.1753
     10 C          59.2976   87.0025    7.9221 C.3     1  UNL1        0.1538
     11 N          60.5219   86.4262    8.5693 N.ar    1  UNL1       -0.2473
     12 C          60.7604   86.2945   10.0443 C.ar    1  UNL1        0.0983
     13 C          62.1086   85.6673   10.2417 C.ar    1  UNL1        0.0603
     14 C          62.7034   85.4114    8.8886 C.ar    1  UNL1        0.1232
     15 N          61.7228   85.8804    7.8550 N.ar    1  UNL1       -0.1675
     16 C          63.9067   88.4940   15.0965 C.ar    1  UNL1        0.0107
     17 C          63.4897   89.1286   16.3900 C.ar    1  UNL1        0.0210
     18 C          63.3187   90.6165   16.4747 C.ar    1  UNL1        0.1021
     19 N          63.5646   91.4697   15.2658 N.ar    1  UNL1       -0.2101
     20 C          63.9816   90.8350   13.9722 C.ar    1  UNL1        0.2248
     21 C          64.1526   89.3472   13.8875 C.ar    1  UNL1        0.0579
     22 O          64.2275   91.6882   12.7632 O.3     1  UNL1       -0.4640
     23 C          63.6366   91.3017   11.4398 C.3     1  UNL1        0.1678
     24 C          63.4384   91.5706    9.9775 C.3     1  UNL1        0.0473
     25 C          62.8115   90.3635   10.6098 C.3     1  UNL1        0.0473
     26 O          62.8164   82.8333   10.9252 O.3     1  UNL1       -0.4723
     27 C          63.2419   81.4281   11.2325 C.3     1  UNL1        0.2080
     28 C          62.4029   80.5703   12.1326 C.3     1  UNL1        0.0742
     29 C          62.4394   80.7809   13.6172 C.3     1  UNL1        0.0921
     30 C          60.9459   80.9195   13.6343 C.3     1  UNL1        0.0294
     31 C          63.9328   80.6422   13.6002 C.3     1  UNL1        0.0294
     32 O          62.4758   80.9915   15.1019 O.3     1  UNL1       -0.3866
     33 H          61.5732   81.1214   15.4324 H       1  UNL1        0.2102
@<TRIPOS>BOND
     1    10    11    1
     2    11    12   ar
     3    12    13   ar
     4    13     1    1
     5     1     2   ar
     6     2     3   ar
     7     3     4   ar
     8     4    16    1
     9    16    17   ar
    10    17    18   ar
    11    18    19   ar
    12    19    20   ar
    13    20    22    1
    14    22    23    1
    15    23    24    1
    16    24    25    1
    17    20    21   ar
    18     4     5   ar
    19     5     6   ar
    20     6     7   ar
    21     7     8   ar
    22     8     9   ar
    23     9    26    1
    24    26    27    1
    25    27    28    1
    26    28    29    1
    27    29    30    1
    28    29    31    1
    29    29    32    1
    30    13    14   ar
    31    14    15   ar
    32    15    11   ar
    33     9     1   ar
    34     7     3   ar
    35    21    16   ar
    36    25    23    1
    37    32    33    1
@<TRIPOS>MOLECULE
*****
 33 37 0 0 0
SMALL
GASTEIGER

@<TRIPOS>ATOM
      1 C          62.9459   86.4823   12.2894 C.ar    1  UNL1        0.1213
      2 N          63.3437   87.8329   12.8068 N.ar    1  UNL1       -0.2233
      3 C          63.1311   89.0528   11.9603 C.ar    1  UNL1        0.1654
      4 C          63.4214   90.5046   12.2010 C.ar    1  UNL1        0.0569
      5 C          62.9905   91.2712   10.9858 C.ar    1  UNL1        0.1236
      6 N          62.4339   90.2931    9.9941 N.ar    1  UNL1       -0.1620
      7 N          62.5208   88.9221   10.5963 N.ar    1  UNL1       -0.2076
      8 C          62.1229   87.5715   10.0789 C.ar    1  UNL1        0.1404
      9 C          62.3355   86.3516   10.9255 C.ar    1  UNL1        0.1753
     10 C          62.1723   81.8578   14.7177 C.3     1  UNL1        0.1538
     11 N          62.8028   83.1368   14.2522 N.ar    1  UNL1       -0.2473
     12 C          62.1788   84.1435   13.3317 C.ar    1  UNL1        0.0983
     13 C          63.1584   85.2624   13.1360 C.ar    1  UNL1        0.0603
     14 C          64.3879   84.9473   13.9355 C.ar    1  UNL1        0.1232
     15 N          64.1682   83.6336   14.6253 N.ar    1  UNL1       -0.1675
     16 C          64.0350   91.0874   13.4395 C.ar    1  UNL1        0.0107
     17 C          63.5023   90.7093   14.7897 C.ar    1  UNL1        0.0210
     18 C          64.1158   91.2921   16.0283 C.ar    1  UNL1        0.1021
     19 N          65.2620   92.2531   15.9165 N.ar    1  UNL1       -0.2101
     20 C          65.7947   92.6313   14.5663 C.ar    1  UNL1        0.2248
     21 C          65.1812   92.0485   13.3277 C.ar    1  UNL1        0.0579
     22 O          66.9410   93.5924   14.4545 O.3     1  UNL1       -0.4640
     23 C          68.1333   93.4454   15.3528 C.3     1  UNL1        0.1678
     24 C          69.2664   94.0613   16.1187 C.3     1  UNL1        0.0473
     25 C          69.0652   92.5750   16.1426 C.3     1  UNL1        0.0473
     26 O          61.9377   85.0011   10.4081 O.3     1  UNL1       -0.4723
     27 C          62.9139   84.1847    9.6141 C.3     1  UNL1        0.2080
     28 C          63.1002   82.7288    9.9232 C.3     1  UNL1        0.0742
     29 C          64.0466   82.3075   11.0081 C.3     1  UNL1        0.0921
     30 C          63.1681   81.1319   11.3180 C.3     1  UNL1        0.0294
     31 C          64.9252   83.4831   10.6981 C.3     1  UNL1        0.0294
     32 O          64.9931   81.8862   12.0929 O.3     1  UNL1       -0.3866
     33 H          64.6614   81.0786   12.5157 H       1  UNL1        0.2102
@<TRIPOS>BOND
     1    10    11    1
     2    11    12   ar
     3    12    13   ar
     4    13     1    1
     5     1     2   ar
     6     2     3   ar
     7     3     4   ar
     8     4    16    1
     9    16    17   ar
    10    17    18   ar
    11    18    19   ar
    12    19    20   ar
    13    20    22    1
    14    22    23    1
    15    23    24    1
    16    24    25    1
    17    20    21   ar
    18     4     5   ar
    19     5     6   ar
    20     6     7   ar
    21     7     8   ar
    22     8     9   ar
    23     9    26    1
    24    26    27    1
    25    27    28    1
    26    28    29    1
    27    29    30    1
    28    29    31    1
    29    29    32    1
    30    13    14   ar
    31    14    15   ar
    32    15    11   ar
    33     9     1   ar
    34     7     3   ar
    35    21    16   ar
    36    25    23    1
    37    32    33    1
@<TRIPOS>MOLECULE
*****
 33 37 0 0 0
SMALL
GASTEIGER

@<TRIPOS>ATOM
      1 C          63.8200   85.5745   14.1086 C.ar    1  UNL1        0.1213
      2 N          63.9977   87.0525   13.9243 N.ar    1  UNL1       -0.2233
      3 C          63.7484   87.9867   15.0711 C.ar    1  UNL1        0.1654
      4 C          63.8410   89.4792   15.1883 C.ar    1  UNL1        0.0569
      5 C          63.4712   89.8579   16.5918 C.ar    1  UNL1        0.1236
      6 N          63.1500   88.5993   17.3420 N.ar    1  UNL1       -0.1620
      7 N          63.3213   87.4428   16.4022 N.ar    1  UNL1       -0.2076
      8 C          63.1436   85.9649   16.5865 C.ar    1  UNL1        0.1404
      9 C          63.3929   85.0307   15.4397 C.ar    1  UNL1        0.1753
     10 C          63.4720   83.1789    9.4160 C.3     1  UNL1        0.1538
     11 N          63.9094   83.5392   10.8048 N.ar    1  UNL1       -0.2473
     12 C          63.3363   84.6355   11.6531 C.ar    1  UNL1        0.0983
     13 C          64.0693   84.6404   12.9618 C.ar    1  UNL1        0.0603
     14 C          65.0956   83.5470   12.9222 C.ar    1  UNL1        0.1232
     15 N          64.9967   82.8665   11.5892 N.ar    1  UNL1       -0.1675
     16 C          64.2344   90.4268   14.0940 C.ar    1  UNL1        0.0107
     17 C          63.4514   90.4622   12.8151 C.ar    1  UNL1        0.0210
     18 C          63.8447   91.4098   11.7208 C.ar    1  UNL1        0.1021
     19 N          65.0212   92.3218   11.9054 N.ar    1  UNL1       -0.2101
     20 C          65.8042   92.2863   13.1843 C.ar    1  UNL1        0.2248
     21 C          65.4109   91.3388   14.2786 C.ar    1  UNL1        0.0579
     22 O          66.9807   93.1984   13.3689 O.3     1  UNL1       -0.4640
     23 C          67.8007   93.1204   14.6225 C.3     1  UNL1        0.1678
     24 C          67.9753   93.4220   16.0814 C.3     1  UNL1        0.0473
     25 C          69.0464   92.6836   15.3348 C.3     1  UNL1        0.0473
     26 O          63.2152   83.5527   15.6240 O.3     1  UNL1       -0.4723
     27 C          61.9681   82.8801   15.1316 C.3     1  UNL1        0.2080
     28 C          61.9748   82.1574   13.8173 C.3     1  UNL1        0.0742
     29 C          61.9152   80.6589   13.7849 C.3     1  UNL1        0.0921
     30 C          63.3821   80.6072   13.4759 C.3     1  UNL1        0.0294
     31 C          60.4483   80.7106   14.0940 C.3     1  UNL1        0.0294
     32 O          61.8556   79.1605   13.7526 O.3     1  UNL1       -0.3866
     33 H          62.7371   78.8060   13.5572 H       1  UNL1        0.2102
@<TRIPOS>BOND
     1    10    11    1
     2    11    12   ar
     3    12    13   ar
     4    13     1    1
     5     1     2   ar
     6     2     3   ar
     7     3     4   ar
     8     4    16    1
     9    16    17   ar
    10    17    18   ar
    11    18    19   ar
    12    19    20   ar
    13    20    22    1
    14    22    23    1
    15    23    24    1
    16    24    25    1
    17    20    21   ar
    18     4     5   ar
    19     5     6   ar
    20     6     7   ar
    21     7     8   ar
    22     8     9   ar
    23     9    26    1
    24    26    27    1
    25    27    28    1
    26    28    29    1
    27    29    30    1
    28    29    31    1
    29    29    32    1
    30    13    14   ar
    31    14    15   ar
    32    15    11   ar
    33     9     1   ar
    34     7     3   ar
    35    21    16   ar
    36    25    23    1
    37    32    33    1
@<TRIPOS>MOLECULE
*****
 33 37 0 0 0
SMALL
GASTEIGER

@<TRIPOS>ATOM
      1 C          62.4237   87.9093   11.7794 C.ar    1  UNL1        0.1213
      2 N          62.6514   86.4471   12.0251 N.ar    1  UNL1       -0.2233
      3 C          63.5380   86.0051   13.1514 C.ar    1  UNL1        0.1654
      4 C          63.9462   84.6443   13.6327 C.ar    1  UNL1        0.0569
      5 C          64.8573   84.8233   14.8108 C.ar    1  UNL1        0.1236
      6 N          65.0121   86.2947   15.0576 N.ar    1  UNL1       -0.1620
      7 N          64.1967   87.0251   14.0321 N.ar    1  UNL1       -0.2076
      8 C          63.9690   88.4872   13.7865 C.ar    1  UNL1        0.1404
      9 C          63.0824   88.9293   12.6601 C.ar    1  UNL1        0.1753
     10 C          59.4000   87.8568    7.4511 C.3     1  UNL1        0.1538
     11 N          60.1473   88.3272    8.6636 N.ar    1  UNL1       -0.2473
     12 C          60.9746   87.4715    9.5764 C.ar    1  UNL1        0.0983
     13 C          61.5372   88.3514   10.6531 C.ar    1  UNL1        0.0603
     14 C          61.0575   89.7509   10.4057 C.ar    1  UNL1        0.1232
     15 N          60.1986   89.7360    9.1761 N.ar    1  UNL1       -0.1675
     16 C          63.5185   83.3345   13.0399 C.ar    1  UNL1        0.0107
     17 C          63.8303   83.0226   11.6062 C.ar    1  UNL1        0.0210
     18 C          63.4026   81.7128   11.0133 C.ar    1  UNL1        0.1021
     19 N          62.6630   80.7148   11.8542 N.ar    1  UNL1       -0.2101
     20 C          62.3512   81.0267   13.2878 C.ar    1  UNL1        0.2248
     21 C          62.7789   82.3365   13.8807 C.ar    1  UNL1        0.0579
     22 O          61.6116   80.0287   14.1287 O.3     1  UNL1       -0.4640
     23 C          60.1150   80.0826   14.2142 C.3     1  UNL1        0.1678
     24 C          58.8290   80.8309   14.0235 C.3     1  UNL1        0.0473
     25 C          58.8088   79.4275   14.5529 C.3     1  UNL1        0.0473
     26 O          62.8547   90.3914   12.4145 O.3     1  UNL1       -0.4723
     27 C          63.9359   91.2248   11.7929 C.3     1  UNL1        0.2080
     28 C          64.8923   91.9838   12.6643 C.3     1  UNL1        0.0742
     29 C          66.0450   92.7203   12.0488 C.3     1  UNL1        0.0921
     30 C          66.7174   92.7872   13.3880 C.3     1  UNL1        0.0294
     31 C          65.3726   92.6534   10.7096 C.3     1  UNL1        0.0294
     32 O          67.1977   93.4567   11.4332 O.3     1  UNL1       -0.3866
     33 H          67.8561   93.6563   12.1170 H       1  UNL1        0.2102
@<TRIPOS>BOND
     1    10    11    1
     2    11    12   ar
     3    12    13   ar
     4    13     1    1
     5     1     2   ar
     6     2     3   ar
     7     3     4   ar
     8     4    16    1
     9    16    17   ar
    10    17    18   ar
    11    18    19   ar
    12    19    20   ar
    13    20    22    1
    14    22    23    1
    15    23    24    1
    16    24    25    1
    17    20    21   ar
    18     4     5   ar
    19     5     6   ar
    20     6     7   ar
    21     7     8   ar
    22     8     9   ar
    23     9    26    1
    24    26    27    1
    25    27    28    1
    26    28    29    1
    27    29    30    1
    28    29    31    1
    29    29    32    1
    30    13    14   ar
    31    14    15   ar
    32    15    11   ar
    33     9     1   ar
    34     7     3   ar
    35    21    16   ar
    36    25    23    1
    37    32    33    1
