@<TRIPOS>MOLECULE
*****
 32 35 0 0 0
SMALL
GASTEIGER

@<TRIPOS>ATOM
      1 C          59.2635   89.5505    6.8220 C.ar    1  UNL1        0.0180
      2 C          58.7227   88.1590    6.9678 C.ar    1  UNL1        0.0029
      3 C          59.3306   87.2189    7.9661 C.ar    1  UNL1        0.0189
      4 C          60.4793   87.6702    8.8185 C.ar    1  UNL1        0.0789
      5 C          61.0201   89.0617    8.6727 C.ar    1  UNL1        0.0669
      6 C          60.4122   90.0018    7.6745 C.ar    1  UNL1        0.0174
      7 N          61.0873   86.7300    9.8168 N.ar    1  UNL1       -0.2852
      8 C          62.0104   85.5895    9.5053 C.ar    1  UNL1        0.1023
      9 C          62.3725   84.9199   10.7978 C.ar    1  UNL1        0.1196
     10 N          61.6731   85.6466   11.9081 N.ar    1  UNL1       -0.2220
     11 C          60.8788   86.7653   11.3018 C.ar    1  UNL1        0.1829
     12 N          62.1689   89.5130    9.5252 N.am    1  UNL1       -0.2792
     13 C          61.9081   90.1871   10.8396 C.2     1  UNL1        0.2495
     14 O          60.4984   90.4098   11.3015 O.2     1  UNL1       -0.2698
     15 H          63.0941   89.3669    9.2220 H       1  UNL1        0.1552
     16 C          63.0568   90.6384   11.6921 C.ar    1  UNL1        0.0537
     17 C          64.0011   91.6873   11.1839 C.ar    1  UNL1        0.0045
     18 C          65.1498   92.1386   12.0364 C.ar    1  UNL1        0.0001
     19 C          65.3543   91.5411   13.3970 C.ar    1  UNL1        0.0000
     20 C          64.4100   90.4922   13.9051 C.ar    1  UNL1        0.0001
     21 C          63.2613   90.0409   13.0526 C.ar    1  UNL1        0.0045
     22 C          66.5030   91.9924   14.2494 C.ar    1  UNL1        0.0000
     23 C          66.2518   92.5041   15.6369 C.ar    1  UNL1        0.0000
     24 C          67.4005   92.9554   16.4893 C.ar    1  UNL1        0.0000
     25 C          68.8005   92.8951   15.9542 C.ar    1  UNL1        0.0000
     26 C          69.0518   92.3834   14.5668 C.ar    1  UNL1        0.0000
     27 C          67.9031   91.9321   13.7144 C.ar    1  UNL1        0.0000
     28 N          59.5282   91.4465    5.0656 N.2     1  UNL1       -0.0873
     29 C          58.6556   90.4907    5.8238 C.2     1  UNL1        0.0974
     30 C          57.1750   90.4750    5.5837 C.3     1  UNL1        0.0555
     31 C          59.6981   92.7954    2.8516 C.3     1  UNL1        0.2885
     32 O          58.9202   92.3867    4.0674 O.2     1  UNL1       -0.3734
@<TRIPOS>BOND
     1    31    32    1
     2    32    28    1
     3    28    29    2
     4    29    30    1
     5    29     1    1
     6     1     2   ar
     7     2     3   ar
     8     3     4   ar
     9     4     7    1
    10     7     8   ar
    11     8     9   ar
    12     9    10   ar
    13    10    11   ar
    14     4     5   ar
    15     5    12    1
    16    12    13   am
    17    13    14    2
    18    13    16    1
    19    16    17   ar
    20    17    18   ar
    21    18    19   ar
    22    19    22    1
    23    22    23   ar
    24    23    24   ar
    25    24    25   ar
    26    25    26   ar
    27    26    27   ar
    28    19    20   ar
    29    20    21   ar
    30     5     6   ar
    31     6     1   ar
    32    11     7   ar
    33    21    16   ar
    34    27    22   ar
    35    12    15    1
@<TRIPOS>MOLECULE
*****
 32 35 0 0 0
SMALL
GASTEIGER

@<TRIPOS>ATOM
      1 C          63.8417   84.2758   13.6791 C.ar    1  UNL1        0.0180
      2 C          64.4931   84.9347   14.8587 C.ar    1  UNL1        0.0029
      3 C          64.4811   86.4294   14.9841 C.ar    1  UNL1        0.0189
      4 C          63.8177   87.2652   13.9299 C.ar    1  UNL1        0.0789
      5 C          63.1663   86.6063   12.7503 C.ar    1  UNL1        0.0669
      6 C          63.1783   85.1116   12.6249 C.ar    1  UNL1        0.0174
      7 N          63.8057   88.7599   14.0553 N.ar    1  UNL1       -0.2852
      8 C          63.9913   89.7402   12.9352 C.ar    1  UNL1        0.1023
      9 C          63.9063   91.1229   13.5105 C.ar    1  UNL1        0.1196
     10 N          63.6682   90.9972   14.9861 N.ar    1  UNL1       -0.2220
     11 C          63.6060   89.5367   15.3228 C.ar    1  UNL1        0.1829
     12 N          62.5029   87.4420   11.6961 N.am    1  UNL1       -0.2792
     13 C          61.7013   86.7845   10.6121 C.2     1  UNL1        0.2495
     14 O          61.5630   85.2912   10.5823 O.2     1  UNL1       -0.2698
     15 H          62.5936   88.4222   11.7156 H       1  UNL1        0.1552
     16 C          61.0378   87.6203    9.5578 C.ar    1  UNL1        0.0537
     17 C          61.1341   89.1161    9.6159 C.ar    1  UNL1        0.0045
     18 C          60.4706   89.9518    8.5617 C.ar    1  UNL1        0.0001
     19 C          59.7110   89.2917    7.4494 C.ar    1  UNL1        0.0000
     20 C          59.6147   87.7960    7.3913 C.ar    1  UNL1        0.0001
     21 C          60.2781   86.9603    8.4455 C.ar    1  UNL1        0.0045
     22 C          59.0475   90.1275    6.3952 C.ar    1  UNL1        0.0000
     23 C          59.8731   91.0170    5.5136 C.ar    1  UNL1        0.0000
     24 C          59.2097   91.8527    4.4594 C.ar    1  UNL1        0.0000
     25 C          57.7206   91.7989    4.2868 C.ar    1  UNL1        0.0000
     26 C          56.8950   90.9095    5.1683 C.ar    1  UNL1        0.0000
     27 C          57.5585   90.0737    6.2225 C.ar    1  UNL1        0.0000
     28 N          63.1468   81.9373   14.5726 N.2     1  UNL1       -0.0873
     29 C          63.8537   82.7811   13.5537 C.2     1  UNL1        0.0974
     30 C          64.5726   82.1302   12.4094 C.3     1  UNL1        0.0555
     31 C          62.2201   79.7622   13.4952 C.3     1  UNL1        0.2885
     32 O          63.1588   80.4426   14.4472 O.2     1  UNL1       -0.3734
@<TRIPOS>BOND
     1    31    32    1
     2    32    28    1
     3    28    29    2
     4    29    30    1
     5    29     1    1
     6     1     2   ar
     7     2     3   ar
     8     3     4   ar
     9     4     7    1
    10     7     8   ar
    11     8     9   ar
    12     9    10   ar
    13    10    11   ar
    14     4     5   ar
    15     5    12    1
    16    12    13   am
    17    13    14    2
    18    13    16    1
    19    16    17   ar
    20    17    18   ar
    21    18    19   ar
    22    19    22    1
    23    22    23   ar
    24    23    24   ar
    25    24    25   ar
    26    25    26   ar
    27    26    27   ar
    28    19    20   ar
    29    20    21   ar
    30     5     6   ar
    31     6     1   ar
    32    11     7   ar
    33    21    16   ar
    34    27    22   ar
    35    12    15    1
@<TRIPOS>MOLECULE
*****
 32 35 0 0 0
SMALL
GASTEIGER

@<TRIPOS>ATOM
      1 C          63.2376   82.7744   13.1425 C.ar    1  UNL1        0.0180
      2 C          64.1538   83.3031   14.2060 C.ar    1  UNL1        0.0029
      3 C          64.3316   84.7829   14.3750 C.ar    1  UNL1        0.0189
      4 C          63.5932   85.7340   13.4805 C.ar    1  UNL1        0.0789
      5 C          62.6771   85.2053   12.4169 C.ar    1  UNL1        0.0669
      6 C          62.4993   83.7255   12.2480 C.ar    1  UNL1        0.0174
      7 N          63.7710   87.2138   13.6494 N.ar    1  UNL1       -0.2852
      8 C          64.2642   87.9073   14.8847 C.ar    1  UNL1        0.1023
      9 C          64.2848   89.3820   14.6115 C.ar    1  UNL1        0.1196
     10 N          63.8044   89.6001   13.2074 N.ar    1  UNL1       -0.2220
     11 C          63.4869   88.2601   12.6128 C.ar    1  UNL1        0.1829
     12 N          61.9387   86.1564   11.5223 N.am    1  UNL1       -0.2792
     13 C          62.0114   85.9947   10.0329 C.2     1  UNL1        0.2495
     14 O          62.8225   84.8820    9.4379 O.2     1  UNL1       -0.2698
     15 H          61.4064   86.8867   11.9128 H       1  UNL1        0.1552
     16 C          61.2730   86.9458    9.1383 C.ar    1  UNL1        0.0537
     17 C          61.2833   88.4161    9.4353 C.ar    1  UNL1        0.0045
     18 C          60.5449   89.3671    8.5407 C.ar    1  UNL1        0.0001
     19 C          59.7963   88.8479    7.3491 C.ar    1  UNL1        0.0000
     20 C          59.7860   87.3776    7.0520 C.ar    1  UNL1        0.0001
     21 C          60.5244   86.4266    7.9466 C.ar    1  UNL1        0.0045
     22 C          59.0579   89.7990    6.4545 C.ar    1  UNL1        0.0000
     23 C          57.5618   89.7375    6.3665 C.ar    1  UNL1        0.0000
     24 C          56.8235   90.6886    5.4719 C.ar    1  UNL1        0.0000
     25 C          57.5813   91.7011    4.6653 C.ar    1  UNL1        0.0000
     26 C          59.0774   91.7625    4.7533 C.ar    1  UNL1        0.0000
     27 C          59.8157   90.8114    5.6479 C.ar    1  UNL1        0.0000
     28 N          62.9311   80.7067   11.5996 N.2     1  UNL1       -0.0873
     29 C          63.0598   81.2946   12.9735 C.2     1  UNL1        0.0974
     30 C          63.0108   80.4027   14.1785 C.3     1  UNL1        0.0555
     31 C          62.7571   78.6230   10.0575 C.3     1  UNL1        0.2885
     32 O          62.7533   79.2269   11.4306 O.2     1  UNL1       -0.3734
@<TRIPOS>BOND
     1    31    32    1
     2    32    28    1
     3    28    29    2
     4    29    30    1
     5    29     1    1
     6     1     2   ar
     7     2     3   ar
     8     3     4   ar
     9     4     7    1
    10     7     8   ar
    11     8     9   ar
    12     9    10   ar
    13    10    11   ar
    14     4     5   ar
    15     5    12    1
    16    12    13   am
    17    13    14    2
    18    13    16    1
    19    16    17   ar
    20    17    18   ar
    21    18    19   ar
    22    19    22    1
    23    22    23   ar
    24    23    24   ar
    25    24    25   ar
    26    25    26   ar
    27    26    27   ar
    28    19    20   ar
    29    20    21   ar
    30     5     6   ar
    31     6     1   ar
    32    11     7   ar
    33    21    16   ar
    34    27    22   ar
    35    12    15    1
@<TRIPOS>MOLECULE
*****
 32 35 0 0 0
SMALL
GASTEIGER

@<TRIPOS>ATOM
      1 C          64.8750   91.4399   14.0950 C.ar    1  UNL1        0.0180
      2 C          64.5121   91.7063   15.5258 C.ar    1  UNL1        0.0029
      3 C          63.8439   90.6393   16.3412 C.ar    1  UNL1        0.0189
      4 C          63.5385   89.3059   15.7259 C.ar    1  UNL1        0.0789
      5 C          63.9015   89.0395   14.2951 C.ar    1  UNL1        0.0669
      6 C          64.5697   90.1065   13.4796 C.ar    1  UNL1        0.0174
      7 N          62.8703   88.2389   16.5413 N.ar    1  UNL1       -0.2852
      8 C          63.4086   87.6232   17.7988 C.ar    1  UNL1        0.1023
      9 C          62.4174   86.6041   18.2771 C.ar    1  UNL1        0.1196
     10 N          61.2664   86.5898   17.3153 N.ar    1  UNL1       -0.2220
     11 C          61.5463   87.6002   16.2425 C.ar    1  UNL1        0.1829
     12 N          63.5961   87.7060   13.6796 N.am    1  UNL1       -0.2792
     13 C          64.3319   86.4821   14.1386 C.2     1  UNL1        0.2495
     14 O          65.3729   86.5915   15.2129 O.2     1  UNL1       -0.2698
     15 H          62.9129   87.6341   12.9745 H       1  UNL1        0.1552
     16 C          64.0265   85.1486   13.5231 C.ar    1  UNL1        0.0537
     17 C          63.1163   85.0621   12.3340 C.ar    1  UNL1        0.0045
     18 C          62.8110   83.7287   11.7187 C.ar    1  UNL1        0.0001
     19 C          63.4160   82.4817   12.2924 C.ar    1  UNL1        0.0000
     20 C          64.3262   82.5682   13.4815 C.ar    1  UNL1        0.0001
     21 C          64.6315   83.9016   14.0968 C.ar    1  UNL1        0.0045
     22 C          63.1107   81.1482   11.6770 C.ar    1  UNL1        0.0000
     23 C          62.7023   79.9966   12.5469 C.ar    1  UNL1        0.0000
     24 C          62.3970   78.6632   11.9315 C.ar    1  UNL1        0.0000
     25 C          62.5001   78.4815   10.4461 C.ar    1  UNL1        0.0000
     26 C          62.9084   79.6331    9.5761 C.ar    1  UNL1        0.0000
     27 C          63.2137   80.9665   10.1916 C.ar    1  UNL1        0.0000
     28 N          65.2817   92.5985   11.8054 N.2     1  UNL1       -0.0873
     29 C          65.5433   92.5069   13.2795 C.2     1  UNL1        0.0974
     30 C          66.4731   93.4823   13.9382 C.3     1  UNL1        0.0555
     31 C          67.0263   93.2982   10.0118 C.3     1  UNL1        0.2885
     32 O          65.9499   93.6655   10.9899 O.2     1  UNL1       -0.3734
@<TRIPOS>BOND
     1    31    32    1
     2    32    28    1
     3    28    29    2
     4    29    30    1
     5    29     1    1
     6     1     2   ar
     7     2     3   ar
     8     3     4   ar
     9     4     7    1
    10     7     8   ar
    11     8     9   ar
    12     9    10   ar
    13    10    11   ar
    14     4     5   ar
    15     5    12    1
    16    12    13   am
    17    13    14    2
    18    13    16    1
    19    16    17   ar
    20    17    18   ar
    21    18    19   ar
    22    19    22    1
    23    22    23   ar
    24    23    24   ar
    25    24    25   ar
    26    25    26   ar
    27    26    27   ar
    28    19    20   ar
    29    20    21   ar
    30     5     6   ar
    31     6     1   ar
    32    11     7   ar
    33    21    16   ar
    34    27    22   ar
    35    12    15    1
@<TRIPOS>MOLECULE
*****
 32 35 0 0 0
SMALL
GASTEIGER

@<TRIPOS>ATOM
      1 C          64.6781   91.1066   13.4364 C.ar    1  UNL1        0.0180
      2 C          64.3086   91.5577   14.8184 C.ar    1  UNL1        0.0029
      3 C          63.8629   90.5545   15.8407 C.ar    1  UNL1        0.0189
      4 C          63.7867   89.1003   15.4810 C.ar    1  UNL1        0.0789
      5 C          64.1562   88.6493   14.0990 C.ar    1  UNL1        0.0669
      6 C          64.6019   89.6524   13.0767 C.ar    1  UNL1        0.0174
      7 N          63.3411   88.0972   16.5033 N.ar    1  UNL1       -0.2852
      8 C          63.3350   86.6070   16.3320 C.ar    1  UNL1        0.1023
      9 C          62.8134   85.9969   17.5992 C.ar    1  UNL1        0.1196
     10 N          62.4971   87.1100   18.5536 N.ar    1  UNL1       -0.2220
     11 C          62.8232   88.4081   17.8763 C.ar    1  UNL1        0.1829
     12 N          64.0801   87.1950   13.7392 N.am    1  UNL1       -0.2792
     13 C          63.1186   86.7326   12.6848 C.2     1  UNL1        0.2495
     14 O          62.2333   87.7244   11.9902 O.2     1  UNL1       -0.2698
     15 H          64.6612   86.5441   14.1951 H       1  UNL1        0.1552
     16 C          63.0424   85.2783   12.3251 C.ar    1  UNL1        0.0537
     17 C          62.8762   84.2471   13.4015 C.ar    1  UNL1        0.0045
     18 C          62.8001   82.7929   13.0417 C.ar    1  UNL1        0.0001
     19 C          62.8901   82.3700   11.6054 C.ar    1  UNL1        0.0000
     20 C          63.0564   83.4012   10.5289 C.ar    1  UNL1        0.0001
     21 C          63.1325   84.8554   10.8887 C.ar    1  UNL1        0.0045
     22 C          62.8140   80.9157   11.2456 C.ar    1  UNL1        0.0000
     23 C          62.9718   80.4873    9.8168 C.ar    1  UNL1        0.0000
     24 C          62.8957   79.0331    9.4571 C.ar    1  UNL1        0.0000
     25 C          62.6616   78.0073   10.5262 C.ar    1  UNL1        0.0000
     26 C          62.5037   78.4357   11.9550 C.ar    1  UNL1        0.0000
     27 C          62.5799   79.8899   12.3147 C.ar    1  UNL1        0.0000
     28 N          66.2544   93.0453   12.7246 N.2     1  UNL1       -0.0873
     29 C          65.1238   92.1098   12.4141 C.2     1  UNL1        0.0974
     30 C          64.4388   92.1775   11.0814 C.3     1  UNL1        0.0555
     31 C          66.0551   95.4017   11.6486 C.3     1  UNL1        0.2885
     32 O          66.7001   94.0485   11.7023 O.2     1  UNL1       -0.3734
@<TRIPOS>BOND
     1    31    32    1
     2    32    28    1
     3    28    29    2
     4    29    30    1
     5    29     1    1
     6     1     2   ar
     7     2     3   ar
     8     3     4   ar
     9     4     7    1
    10     7     8   ar
    11     8     9   ar
    12     9    10   ar
    13    10    11   ar
    14     4     5   ar
    15     5    12    1
    16    12    13   am
    17    13    14    2
    18    13    16    1
    19    16    17   ar
    20    17    18   ar
    21    18    19   ar
    22    19    22    1
    23    22    23   ar
    24    23    24   ar
    25    24    25   ar
    26    25    26   ar
    27    26    27   ar
    28    19    20   ar
    29    20    21   ar
    30     5     6   ar
    31     6     1   ar
    32    11     7   ar
    33    21    16   ar
    34    27    22   ar
    35    12    15    1
