@<TRIPOS>MOLECULE
*****
 29 31 0 0 0
SMALL
GASTEIGER

@<TRIPOS>ATOM
      1 C          63.5677   87.3130   13.3530 C.ar    1  UNL1       -0.0000
      2 C          64.0985   86.5763   14.5469 C.ar    1  UNL1       -0.0002
      3 C          63.8234   85.1104   14.7069 C.ar    1  UNL1       -0.0017
      4 C          63.0174   84.3813   13.6731 C.ar    1  UNL1        0.0070
      5 C          62.4865   85.1182   12.4792 C.ar    1  UNL1       -0.0017
      6 C          62.7616   86.5840   12.3192 C.ar    1  UNL1       -0.0002
      7 C          64.9297   90.9723   14.0634 C.ar    1  UNL1        0.0534
      8 C          64.3931   91.7106   12.8731 C.ar    1  UNL1        0.0045
      9 C          63.5813   90.9830   11.8427 C.ar    1  UNL1        0.0001
     10 C          63.3062   89.5172   12.0027 C.ar    1  UNL1        0.0000
     11 C          63.8428   88.7789   13.1930 C.ar    1  UNL1        0.0001
     12 C          64.6546   89.5065   14.2234 C.ar    1  UNL1        0.0045
     13 C          68.0514   92.3978   16.0566 C.3     1  UNL1        0.1109
     14 N          67.2396   91.6702   15.0263 N.am    1  UNL1       -0.2992
     15 C          65.7415   91.6999   15.0938 C.2     1  UNL1        0.2459
     16 O          65.0551   92.4572   16.1916 O.2     1  UNL1       -0.2701
     17 H          67.6902   91.1731   14.3057 H       1  UNL1        0.1498
     18 C          62.7422   82.9155   13.8330 C.3     1  UNL1        0.1410
     19 O          62.1521   83.1741   15.1876 O.3     1  UNL1       -0.3771
     20 H          62.1927   84.1236   15.3820 H       1  UNL1        0.2112
     21 C          63.3324   82.6569   12.4785 C.ar    1  UNL1        0.0825
     22 C          64.6834   83.1049   12.0052 C.ar    1  UNL1        0.1157
     23 N          64.8611   82.6297   10.5935 N.ar    1  UNL1       -0.2228
     24 C          63.6198   81.8881   10.1944 C.ar    1  UNL1        0.1749
     25 N          62.6750   81.9049   11.3593 N.ar    1  UNL1       -0.3361
     26 H          61.7805   81.4944   11.3849 H       1  UNL1        0.1673
     27 C          62.4671   81.4497   13.9930 C.3     1  UNL1        0.0340
     28 C          63.6044   80.4721   14.0239 C.3     1  UNL1        0.0031
     29 C          61.0546   80.9614   14.1222 C.3     1  UNL1        0.0031
@<TRIPOS>BOND
     1    13    14    1
     2    14    15   am
     3    15    16    2
     4    15     7    1
     5     7     8   ar
     6     8     9   ar
     7     9    10   ar
     8    10    11   ar
     9    11     1    1
    10     1     2   ar
    11     2     3   ar
    12     3     4   ar
    13     4    18    1
    14    18    19    1
    15    18    21    1
    16    21    22   ar
    17    22    23   ar
    18    23    24   ar
    19    24    25   ar
    20    18    27    1
    21    27    28    1
    22    27    29    1
    23     4     5   ar
    24     5     6   ar
    25    11    12   ar
    26    12     7   ar
    27     6     1   ar
    28    25    21   ar
    29    14    17    1
    30    19    20    1
    31    25    26    1
@<TRIPOS>MOLECULE
*****
 29 31 0 0 0
SMALL
GASTEIGER

@<TRIPOS>ATOM
      1 C          63.0159   89.2831   11.5718 C.ar    1  UNL1       -0.0000
      2 C          63.3119   90.6423   11.0106 C.ar    1  UNL1       -0.0002
      3 C          64.1643   91.6038   11.7845 C.ar    1  UNL1       -0.0017
      4 C          64.7207   91.2061   13.1195 C.ar    1  UNL1        0.0070
      5 C          64.4247   89.8468   13.6806 C.ar    1  UNL1       -0.0017
      6 C          63.5723   88.8853   12.9068 C.ar    1  UNL1       -0.0002
      7 C          60.4265   87.8617    8.9214 C.ar    1  UNL1        0.0534
      8 C          60.4586   86.3985    9.2502 C.ar    1  UNL1        0.0045
      9 C          61.3432   85.8969   10.3528 C.ar    1  UNL1        0.0001
     10 C          62.1956   86.8584   11.1267 C.ar    1  UNL1        0.0000
     11 C          62.1635   88.3215   10.7979 C.ar    1  UNL1        0.0001
     12 C          61.2789   88.8231    9.6952 C.ar    1  UNL1        0.0045
     13 C          59.0035   90.1341    5.9955 C.3     1  UNL1        0.1109
     14 N          59.8881   89.6325    7.0981 N.am    1  UNL1       -0.2992
     15 C          59.5419   88.3633    7.8187 C.2     1  UNL1        0.2459
     16 O          58.3111   87.5958    7.4366 O.2     1  UNL1       -0.2701
     17 H          60.6959   90.1363    7.3489 H       1  UNL1        0.1498
     18 C          65.5731   92.1676   13.8934 C.3     1  UNL1        0.1410
     19 O          64.6709   92.0112   15.0814 O.3     1  UNL1       -0.3771
     20 H          63.9568   91.3913   14.8657 H       1  UNL1        0.2112
     21 C          66.4753   92.3240   12.7053 C.ar    1  UNL1        0.0825
     22 C          67.8452   91.7317   12.5544 C.ar    1  UNL1        0.1157
     23 N          68.3826   92.1418   11.2153 N.ar    1  UNL1       -0.2228
     24 C          67.3448   92.9876   10.5386 C.ar    1  UNL1        0.1749
     25 N          66.1661   93.1002   11.4595 N.ar    1  UNL1       -0.3361
     26 H          65.3354   93.5965   11.2781 H       1  UNL1        0.1673
     27 C          66.4255   93.1291   14.6672 C.3     1  UNL1        0.0340
     28 C          66.9275   92.7566   16.0308 C.3     1  UNL1        0.0031
     29 C          66.7760   94.4631   14.0775 C.3     1  UNL1        0.0031
@<TRIPOS>BOND
     1    13    14    1
     2    14    15   am
     3    15    16    2
     4    15     7    1
     5     7     8   ar
     6     8     9   ar
     7     9    10   ar
     8    10    11   ar
     9    11     1    1
    10     1     2   ar
    11     2     3   ar
    12     3     4   ar
    13     4    18    1
    14    18    19    1
    15    18    21    1
    16    21    22   ar
    17    22    23   ar
    18    23    24   ar
    19    24    25   ar
    20    18    27    1
    21    27    28    1
    22    27    29    1
    23     4     5   ar
    24     5     6   ar
    25    11    12   ar
    26    12     7   ar
    27     6     1   ar
    28    25    21   ar
    29    14    17    1
    30    19    20    1
    31    25    26    1
@<TRIPOS>MOLECULE
*****
 29 31 0 0 0
SMALL
GASTEIGER

@<TRIPOS>ATOM
      1 C          62.7322   89.6258   11.0262 C.ar    1  UNL1       -0.0000
      2 C          63.2426   89.2547   12.3869 C.ar    1  UNL1       -0.0002
      3 C          64.2022   90.1601   13.1007 C.ar    1  UNL1       -0.0017
      4 C          64.6512   91.4368   12.4537 C.ar    1  UNL1        0.0070
      5 C          64.1407   91.8079   11.0929 C.ar    1  UNL1       -0.0017
      6 C          63.1812   90.9025   10.3792 C.ar    1  UNL1       -0.0002
      7 C          61.3318   86.6948    8.7463 C.ar    1  UNL1        0.0534
      8 C          59.8537   86.9095    8.8848 C.ar    1  UNL1        0.0045
      9 C          59.3351   88.0296    9.7371 C.ar    1  UNL1        0.0001
     10 C          60.2946   88.9350   10.4508 C.ar    1  UNL1        0.0000
     11 C          61.7726   88.7204   10.3124 C.ar    1  UNL1        0.0001
     12 C          62.2912   87.6002    9.4601 C.ar    1  UNL1        0.0045
     13 C          61.6201   84.0410    5.8096 C.3     1  UNL1        0.1109
     14 N          61.1015   85.1611    6.6619 N.am    1  UNL1       -0.2992
     15 C          61.8503   85.5746    7.8940 C.2     1  UNL1        0.2459
     16 O          63.1177   84.8680    8.2739 O.2     1  UNL1       -0.2701
     17 H          60.2697   85.6249    6.4125 H       1  UNL1        0.1498
     18 C          65.6107   92.3422   13.1675 C.3     1  UNL1        0.1410
     19 O          64.9125   92.0597   14.4646 O.3     1  UNL1       -0.3771
     20 H          64.1769   91.4468   14.3090 H       1  UNL1        0.2112
     21 C          66.3090   92.6247   11.8703 C.ar    1  UNL1        0.0825
     22 C          65.8571   93.5941   10.8186 C.ar    1  UNL1        0.1157
     23 N          66.8507   93.5559    9.6954 N.ar    1  UNL1       -0.2228
     24 C          67.9166   92.5629   10.0530 C.ar    1  UNL1        0.1749
     25 N          67.5819   91.9874   11.3972 N.ar    1  UNL1       -0.3361
     26 H          68.1056   91.3103   11.8834 H       1  UNL1        0.1673
     27 C          66.5702   93.2477   13.8812 C.3     1  UNL1        0.0340
     28 C          67.5075   92.6866   14.9092 C.3     1  UNL1        0.0031
     29 C          66.5925   94.7143   13.5669 C.3     1  UNL1        0.0031
@<TRIPOS>BOND
     1    13    14    1
     2    14    15   am
     3    15    16    2
     4    15     7    1
     5     7     8   ar
     6     8     9   ar
     7     9    10   ar
     8    10    11   ar
     9    11     1    1
    10     1     2   ar
    11     2     3   ar
    12     3     4   ar
    13     4    18    1
    14    18    19    1
    15    18    21    1
    16    21    22   ar
    17    22    23   ar
    18    23    24   ar
    19    24    25   ar
    20    18    27    1
    21    27    28    1
    22    27    29    1
    23     4     5   ar
    24     5     6   ar
    25    11    12   ar
    26    12     7   ar
    27     6     1   ar
    28    25    21   ar
    29    14    17    1
    30    19    20    1
    31    25    26    1
@<TRIPOS>MOLECULE
*****
 29 31 0 0 0
SMALL
GASTEIGER

@<TRIPOS>ATOM
      1 C          63.7359   87.3307   14.9453 C.ar    1  UNL1       -0.0000
      2 C          63.5980   86.8231   13.5406 C.ar    1  UNL1       -0.0002
      3 C          63.3233   85.3695   13.2919 C.ar    1  UNL1       -0.0017
      4 C          63.1864   84.4237   14.4481 C.ar    1  UNL1        0.0070
      5 C          63.3243   84.9314   15.8528 C.ar    1  UNL1       -0.0017
      6 C          63.5990   86.3849   16.1014 C.ar    1  UNL1       -0.0002
      7 C          65.1762   91.0030   14.5093 C.ar    1  UNL1        0.0534
      8 C          64.5601   91.6913   15.6911 C.ar    1  UNL1        0.0045
      9 C          63.6692   90.9261   16.6243 C.ar    1  UNL1        0.0001
     10 C          63.3945   89.4726   16.3757 C.ar    1  UNL1        0.0000
     11 C          64.0106   88.7843   15.1939 C.ar    1  UNL1        0.0001
     12 C          64.9014   89.5495   14.2607 C.ar    1  UNL1        0.0045
     13 C          66.3711   93.2422   11.4584 C.3     1  UNL1        0.1109
     14 N          65.4802   92.4770   12.3916 N.am    1  UNL1       -0.2992
     15 C          66.0670   91.7682   13.5761 C.2     1  UNL1        0.2459
     16 O          67.5447   91.8247   13.8275 O.2     1  UNL1       -0.2701
     17 H          64.5104   92.4399   12.2266 H       1  UNL1        0.1498
     18 C          62.9117   82.9702   14.1995 C.3     1  UNL1        0.1410
     19 O          62.4460   82.8158   15.6169 O.3     1  UNL1       -0.3771
     20 H          62.5132   83.6687   16.0740 H       1  UNL1        0.2112
     21 C          63.3774   83.1246   12.7820 C.ar    1  UNL1        0.0825
     22 C          62.5001   83.3360   11.5838 C.ar    1  UNL1        0.1157
     23 N          63.3827   83.4368   10.3750 N.ar    1  UNL1       -0.2228
     24 C          64.8055   83.2876   10.8263 C.ar    1  UNL1        0.1749
     25 N          64.8022   83.0947   12.3138 N.ar    1  UNL1       -0.3361
     26 H          65.5958   82.9703   12.8829 H       1  UNL1        0.1673
     27 C          62.6370   81.5167   13.9509 C.3     1  UNL1        0.0340
     28 C          63.7717   80.5756   13.6739 C.3     1  UNL1        0.0031
     29 C          61.2275   81.0042   13.9793 C.3     1  UNL1        0.0031
@<TRIPOS>BOND
     1    13    14    1
     2    14    15   am
     3    15    16    2
     4    15     7    1
     5     7     8   ar
     6     8     9   ar
     7     9    10   ar
     8    10    11   ar
     9    11     1    1
    10     1     2   ar
    11     2     3   ar
    12     3     4   ar
    13     4    18    1
    14    18    19    1
    15    18    21    1
    16    21    22   ar
    17    22    23   ar
    18    23    24   ar
    19    24    25   ar
    20    18    27    1
    21    27    28    1
    22    27    29    1
    23     4     5   ar
    24     5     6   ar
    25    11    12   ar
    26    12     7   ar
    27     6     1   ar
    28    25    21   ar
    29    14    17    1
    30    19    20    1
    31    25    26    1
@<TRIPOS>MOLECULE
*****
 29 31 0 0 0
SMALL
GASTEIGER

@<TRIPOS>ATOM
      1 C          64.2096   89.1409   14.6729 C.ar    1  UNL1       -0.0000
      2 C          65.2131   90.0923   15.2541 C.ar    1  UNL1       -0.0002
      3 C          65.7223   91.2396   14.4327 C.ar    1  UNL1       -0.0017
      4 C          65.2280   91.4354   13.0301 C.ar    1  UNL1        0.0070
      5 C          64.2245   90.4839   12.4489 C.ar    1  UNL1       -0.0017
      6 C          63.7153   89.3367   13.2703 C.ar    1  UNL1       -0.0002
      7 C          63.2741   85.4470   15.7819 C.ar    1  UNL1        0.0534
      8 C          62.6821   85.6992   17.1368 C.ar    1  UNL1        0.0045
      9 C          62.5992   87.0987   17.6705 C.ar    1  UNL1        0.0001
     10 C          63.1084   88.2459   16.8492 C.ar    1  UNL1        0.0000
     11 C          63.7004   87.9937   15.4942 C.ar    1  UNL1        0.0001
     12 C          63.7833   86.5943   14.9606 C.ar    1  UNL1        0.0045
     13 C          62.1888   81.9206   14.3204 C.3     1  UNL1        0.1109
     14 N          62.1059   83.3200   14.8540 N.am    1  UNL1       -0.2992
     15 C          63.3569   84.0476   15.2483 C.2     1  UNL1        0.2459
     16 O          64.6908   83.3758   15.1089 O.2     1  UNL1       -0.2701
     17 H          61.2304   83.7609   14.9455 H       1  UNL1        0.1498
     18 C          65.7372   92.5826   12.2088 C.3     1  UNL1        0.1410
     19 O          64.6893   92.3053   11.1719 O.3     1  UNL1       -0.3771
     20 H          64.1530   91.5461   11.4492 H       1  UNL1        0.2112
     21 C          66.7850   92.8598   13.2456 C.ar    1  UNL1        0.0825
     22 C          68.1422   92.2253   13.3192 C.ar    1  UNL1        0.1157
     23 N          68.8557   92.7937   14.5101 N.ar    1  UNL1       -0.2228
     24 C          67.9394   93.7795   15.1724 C.ar    1  UNL1        0.1749
     25 N          66.6597   93.8204   14.3909 N.ar    1  UNL1       -0.3361
     26 H          65.8752   94.3795   14.5941 H       1  UNL1        0.1673
     27 C          66.2463   93.7297   11.3874 C.3     1  UNL1        0.0340
     28 C          66.0628   95.1378   11.8706 C.3     1  UNL1        0.0031
     29 C          66.9391   93.4688   10.0827 C.3     1  UNL1        0.0031
@<TRIPOS>BOND
     1    13    14    1
     2    14    15   am
     3    15    16    2
     4    15     7    1
     5     7     8   ar
     6     8     9   ar
     7     9    10   ar
     8    10    11   ar
     9    11     1    1
    10     1     2   ar
    11     2     3   ar
    12     3     4   ar
    13     4    18    1
    14    18    19    1
    15    18    21    1
    16    21    22   ar
    17    22    23   ar
    18    23    24   ar
    19    24    25   ar
    20    18    27    1
    21    27    28    1
    22    27    29    1
    23     4     5   ar
    24     5     6   ar
    25    11    12   ar
    26    12     7   ar
    27     6     1   ar
    28    25    21   ar
    29    14    17    1
    30    19    20    1
    31    25    26    1
@<TRIPOS>MOLECULE
*****
 29 31 0 0 0
SMALL
GASTEIGER

@<TRIPOS>ATOM
      1 C          63.0928   89.9688   12.0935 C.ar    1  UNL1       -0.0000
      2 C          63.6531   91.2156   11.4759 C.ar    1  UNL1       -0.0002
      3 C          64.8274   91.9029   12.1073 C.ar    1  UNL1       -0.0017
      4 C          65.4413   91.3434   13.3563 C.ar    1  UNL1        0.0070
      5 C          64.8809   90.0965   13.9739 C.ar    1  UNL1       -0.0017
      6 C          63.7067   89.4093   13.3425 C.ar    1  UNL1       -0.0002
      7 C          60.9648   87.5367    9.7898 C.ar    1  UNL1        0.0534
      8 C          59.5700   87.9068   10.1992 C.ar    1  UNL1        0.0045
      9 C          59.3495   88.9642   11.2400 C.ar    1  UNL1        0.0001
     10 C          60.5237   89.6515   11.8714 C.ar    1  UNL1        0.0000
     11 C          61.9184   89.2815   11.4620 C.ar    1  UNL1        0.0001
     12 C          62.1390   88.2241   10.4212 C.ar    1  UNL1        0.0045
     13 C          62.7715   84.8323    7.5157 C.3     1  UNL1        0.1109
     14 N          62.5510   85.8897    8.5565 N.am    1  UNL1       -0.2992
     15 C          61.1853   86.4794    8.7490 C.2     1  UNL1        0.2459
     16 O          60.0401   86.0116    7.9007 O.2     1  UNL1       -0.2701
     17 H          63.3027   86.1967    9.1133 H       1  UNL1        0.1498
     18 C          66.6156   92.0307   13.9877 C.3     1  UNL1        0.1410
     19 O          66.3758   91.2721   15.2594 O.3     1  UNL1       -0.3771
     20 H          65.6081   90.6896   15.1485 H       1  UNL1        0.2112
     21 C          66.8554   92.7892   12.7161 C.ar    1  UNL1        0.0825
     22 C          66.4051   94.1905   12.4270 C.ar    1  UNL1        0.1157
     23 N          66.8591   94.5470   11.0425 N.ar    1  UNL1       -0.2228
     24 C          67.5900   93.3659   10.4759 C.ar    1  UNL1        0.1749
     25 N          67.5877   92.2796   11.5102 N.ar    1  UNL1       -0.3361
     26 H          67.9953   91.3886   11.4144 H       1  UNL1        0.1673
     27 C          67.7898   92.7179   14.6192 C.3     1  UNL1        0.0340
     28 C          67.5706   93.7499   15.6855 C.3     1  UNL1        0.0031
     29 C          69.1835   92.3733   14.1843 C.3     1  UNL1        0.0031
@<TRIPOS>BOND
     1    13    14    1
     2    14    15   am
     3    15    16    2
     4    15     7    1
     5     7     8   ar
     6     8     9   ar
     7     9    10   ar
     8    10    11   ar
     9    11     1    1
    10     1     2   ar
    11     2     3   ar
    12     3     4   ar
    13     4    18    1
    14    18    19    1
    15    18    21    1
    16    21    22   ar
    17    22    23   ar
    18    23    24   ar
    19    24    25   ar
    20    18    27    1
    21    27    28    1
    22    27    29    1
    23     4     5   ar
    24     5     6   ar
    25    11    12   ar
    26    12     7   ar
    27     6     1   ar
    28    25    21   ar
    29    14    17    1
    30    19    20    1
    31    25    26    1
@<TRIPOS>MOLECULE
*****
 29 31 0 0 0
SMALL
GASTEIGER

@<TRIPOS>ATOM
      1 C          61.5992   89.3618   10.5932 C.ar    1  UNL1       -0.0000
      2 C          61.1874   89.1968   12.0260 C.ar    1  UNL1       -0.0002
      3 C          62.0664   89.7185   13.1239 C.ar    1  UNL1       -0.0017
      4 C          63.3572   90.4053   12.7888 C.ar    1  UNL1        0.0070
      5 C          63.7689   90.5704   11.3558 C.ar    1  UNL1       -0.0017
      6 C          62.8900   90.0486   10.2581 C.ar    1  UNL1       -0.0002
      7 C          59.4629   89.2099    7.2520 C.ar    1  UNL1        0.0534
      8 C          58.9623   87.7968    7.2997 C.ar    1  UNL1        0.0045
      9 C          59.3407   86.9053    8.4451 C.ar    1  UNL1        0.0001
     10 C          60.2196   87.4269    9.5429 C.ar    1  UNL1        0.0000
     11 C          60.7202   88.8401    9.4953 C.ar    1  UNL1        0.0001
     12 C          60.3418   89.7316    8.3499 C.ar    1  UNL1        0.0045
     13 C          57.2715   91.3780    4.7525 C.3     1  UNL1        0.1109
     14 N          57.6499   90.4865    5.8980 N.am    1  UNL1       -0.2992
     15 C          59.0845   90.1014    6.1066 C.2     1  UNL1        0.2459
     16 O          60.1408   90.6079    5.1697 O.2     1  UNL1       -0.2701
     17 H          56.9566   90.1540    6.5129 H       1  UNL1        0.1498
     18 C          64.2362   90.9271   13.8866 C.3     1  UNL1        0.1410
     19 O          64.4599   92.1892   13.1075 O.3     1  UNL1       -0.3771
     20 H          63.9723   92.1431   12.2703 H       1  UNL1        0.2112
     21 C          64.0124   89.6649   14.6656 C.ar    1  UNL1        0.0825
     22 C          63.2633   89.5488   15.9599 C.ar    1  UNL1        0.1157
     23 N          63.2864   88.1093   16.3814 N.ar    1  UNL1       -0.2228
     24 C          64.0498   87.3358   15.3474 C.ar    1  UNL1        0.1749
     25 N          64.4985   88.2972   14.2870 N.ar    1  UNL1       -0.3361
     26 H          65.0204   88.0704   13.4837 H       1  UNL1        0.1673
     27 C          65.1152   91.4488   14.9843 C.3     1  UNL1        0.0340
     28 C          64.5031   92.0896   16.1946 C.3     1  UNL1        0.0031
     29 C          66.6062   91.3298   14.8718 C.3     1  UNL1        0.0031
@<TRIPOS>BOND
     1    13    14    1
     2    14    15   am
     3    15    16    2
     4    15     7    1
     5     7     8   ar
     6     8     9   ar
     7     9    10   ar
     8    10    11   ar
     9    11     1    1
    10     1     2   ar
    11     2     3   ar
    12     3     4   ar
    13     4    18    1
    14    18    19    1
    15    18    21    1
    16    21    22   ar
    17    22    23   ar
    18    23    24   ar
    19    24    25   ar
    20    18    27    1
    21    27    28    1
    22    27    29    1
    23     4     5   ar
    24     5     6   ar
    25    11    12   ar
    26    12     7   ar
    27     6     1   ar
    28    25    21   ar
    29    14    17    1
    30    19    20    1
    31    25    26    1
@<TRIPOS>MOLECULE
*****
 29 31 0 0 0
SMALL
GASTEIGER

@<TRIPOS>ATOM
      1 C          64.1263   88.2881   14.2560 C.ar    1  UNL1       -0.0000
      2 C          63.5126   88.2512   12.8878 C.ar    1  UNL1       -0.0002
      3 C          63.2795   86.9357   12.2056 C.ar    1  UNL1       -0.0017
      4 C          63.6603   85.6573   12.8915 C.ar    1  UNL1        0.0070
      5 C          64.2741   85.6943   14.2598 C.ar    1  UNL1       -0.0017
      6 C          64.5071   87.0097   14.9419 C.ar    1  UNL1       -0.0002
      7 C          65.8040   91.7355   15.2811 C.ar    1  UNL1        0.0534
      8 C          64.8255   92.2343   16.3026 C.ar    1  UNL1        0.0045
      9 C          63.6139   91.4177   16.6420 C.ar    1  UNL1        0.0001
     10 C          63.3808   90.1023   15.9598 C.ar    1  UNL1        0.0000
     11 C          64.3594   89.6036   14.9382 C.ar    1  UNL1        0.0001
     12 C          65.5710   90.4202   14.5989 C.ar    1  UNL1        0.0045
     13 C          69.0305   94.0088   15.6955 C.3     1  UNL1        0.1109
     14 N          67.8189   93.1922   16.0348 N.am    1  UNL1       -0.2992
     15 C          67.0157   92.5521   14.9417 C.2     1  UNL1        0.2459
     16 O          67.4240   92.7286   13.5092 O.2     1  UNL1       -0.2701
     17 H          67.5509   93.0764   16.9750 H       1  UNL1        0.1498
     18 C          63.4273   84.3419   12.2094 C.3     1  UNL1        0.1410
     19 O          64.2234   83.6484   13.2748 O.3     1  UNL1       -0.3771
     20 H          64.5371   84.3008   13.9203 H       1  UNL1        0.2112
     21 C          62.6312   85.0354   11.1440 C.ar    1  UNL1        0.0825
     22 C          63.0102   85.1557    9.6976 C.ar    1  UNL1        0.1157
     23 N          61.9295   85.9251    8.9975 N.ar    1  UNL1       -0.2228
     24 C          60.8824   86.2804   10.0113 C.ar    1  UNL1        0.1749
     25 N          61.3161   85.7306   11.3378 N.ar    1  UNL1       -0.3361
     26 H          60.8240   85.8117   12.1866 H       1  UNL1        0.1673
     27 C          63.1943   83.0265   11.5272 C.3     1  UNL1        0.0340
     28 C          62.1535   82.0829   12.0529 C.3     1  UNL1        0.0031
     29 C          64.0021   82.6546   10.3192 C.3     1  UNL1        0.0031
@<TRIPOS>BOND
     1    13    14    1
     2    14    15   am
     3    15    16    2
     4    15     7    1
     5     7     8   ar
     6     8     9   ar
     7     9    10   ar
     8    10    11   ar
     9    11     1    1
    10     1     2   ar
    11     2     3   ar
    12     3     4   ar
    13     4    18    1
    14    18    19    1
    15    18    21    1
    16    21    22   ar
    17    22    23   ar
    18    23    24   ar
    19    24    25   ar
    20    18    27    1
    21    27    28    1
    22    27    29    1
    23     4     5   ar
    24     5     6   ar
    25    11    12   ar
    26    12     7   ar
    27     6     1   ar
    28    25    21   ar
    29    14    17    1
    30    19    20    1
    31    25    26    1
@<TRIPOS>MOLECULE
*****
 29 31 0 0 0
SMALL
GASTEIGER

@<TRIPOS>ATOM
      1 C          63.3334   88.2136   12.5942 C.ar    1  UNL1       -0.0000
      2 C          64.0228   87.8168   13.8658 C.ar    1  UNL1       -0.0002
      3 C          64.5436   88.8711   14.7972 C.ar    1  UNL1       -0.0017
      4 C          64.3748   90.3222   14.4568 C.ar    1  UNL1        0.0070
      5 C          63.6853   90.7190   13.1850 C.ar    1  UNL1       -0.0017
      6 C          63.1646   89.6647   12.2538 C.ar    1  UNL1       -0.0002
      7 C          62.6130   84.6608   10.9790 C.ar    1  UNL1        0.0534
      8 C          61.7712   85.0507    9.8003 C.ar    1  UNL1        0.0045
      9 C          61.4502   86.4948    9.5529 C.ar    1  UNL1        0.0001
     10 C          61.9709   87.5491   10.4842 C.ar    1  UNL1        0.0000
     11 C          62.8126   87.1593   11.6628 C.ar    1  UNL1        0.0001
     12 C          63.1337   85.7151   11.9103 C.ar    1  UNL1        0.0045
     13 C          62.6968   81.0758   12.6793 C.3     1  UNL1        0.1109
     14 N          62.3757   82.5200   12.4319 N.am    1  UNL1       -0.2992
     15 C          62.9340   83.2166   11.2265 C.2     1  UNL1        0.2459
     16 O          63.8135   82.4690   10.2685 O.2     1  UNL1       -0.2701
     17 H          61.7985   83.0107   13.0606 H       1  UNL1        0.1498
     18 C          64.8955   91.3765   15.3880 C.3     1  UNL1        0.1410
     19 O          63.8231   91.0314   16.3783 O.3     1  UNL1       -0.3771
     20 H          63.2744   90.3142   16.0240 H       1  UNL1        0.2112
     21 C          65.9680   91.7216   14.3977 C.ar    1  UNL1        0.0825
     22 C          65.8936   92.7996   13.3573 C.ar    1  UNL1        0.1157
     23 N          67.1828   92.7935   12.5904 N.ar    1  UNL1       -0.2228
     24 C          68.0540   91.7117   13.1570 C.ar    1  UNL1        0.1749
     25 N          67.3032   91.0492   14.2739 N.ar    1  UNL1       -0.3361
     26 H          67.6295   90.3040   14.8283 H       1  UNL1        0.1673
     27 C          65.4162   92.4308   16.3193 C.3     1  UNL1        0.0340
     28 C          64.4986   93.0656   17.3217 C.3     1  UNL1        0.0031
     29 C          66.8547   92.8503   16.2481 C.3     1  UNL1        0.0031
@<TRIPOS>BOND
     1    13    14    1
     2    14    15   am
     3    15    16    2
     4    15     7    1
     5     7     8   ar
     6     8     9   ar
     7     9    10   ar
     8    10    11   ar
     9    11     1    1
    10     1     2   ar
    11     2     3   ar
    12     3     4   ar
    13     4    18    1
    14    18    19    1
    15    18    21    1
    16    21    22   ar
    17    22    23   ar
    18    23    24   ar
    19    24    25   ar
    20    18    27    1
    21    27    28    1
    22    27    29    1
    23     4     5   ar
    24     5     6   ar
    25    11    12   ar
    26    12     7   ar
    27     6     1   ar
    28    25    21   ar
    29    14    17    1
    30    19    20    1
    31    25    26    1
