@<TRIPOS>MOLECULE
*****
 27 30 0 0 0
SMALL
GASTEIGER

@<TRIPOS>ATOM
      1 C          63.7997   90.0414   13.4406 C.3     1  UNL1        0.2068
      2 C          63.0960   85.2665   12.3150 C.3     1  UNL1        0.0061
      3 C          62.3864   86.1934   11.3729 C.3     1  UNL1        0.0387
      4 C          61.9362   84.9240   10.7127 C.3     1  UNL1        0.0061
      5 C          62.9850   87.2690   12.2300 C.3     1  UNL1        0.1022
      6 N          62.5513   88.5953   11.6797 N.am    1  UNL1       -0.2581
      7 C          62.9195   89.9412   12.2299 C.2     1  UNL1        0.2419
      8 O          62.4078   91.1870   11.5698 O.2     1  UNL1       -0.2739
      9 C          61.6847   88.3393   10.4824 C.ar    1  UNL1        0.0499
     10 C          60.9753   89.2662    9.5403 C.ar    1  UNL1        0.0146
     11 C          60.1639   88.7086    8.4086 C.ar    1  UNL1        0.0013
     12 C          60.0620   87.2241    8.2190 C.ar    1  UNL1       -0.0002
     13 C          60.7715   86.2973    9.1611 C.ar    1  UNL1       -0.0030
     14 C          61.5828   86.8549   10.2928 C.ar    1  UNL1       -0.0075
     15 C          64.7324   91.2059   13.5955 C.2     1  UNL1        0.3580
     16 N          65.1408   92.0046   12.3934 N.2     1  UNL1       -0.0039
     17 C          66.0735   93.1691   12.5483 C.2     1  UNL1        0.3159
     18 C          66.5978   93.5348   13.9053 C.3     1  UNL1        0.2333
     19 C          66.1894   92.7360   15.1074 C.2     1  UNL1        0.3644
     20 O          66.7137   93.1016   16.4644 O.2     1  UNL1       -0.2422
     21 N          65.2567   91.5715   14.9525 N.am    1  UNL1        0.0289
     22 N          66.4820   93.9680   11.3461 N.pl3   1  UNL1       -0.1888
     23 C          67.1398   93.2882   10.1821 C.3     1  UNL1        0.2343
     24 C          67.5483   94.0870    8.9800 C.3     1  UNL1        0.1929
     25 O          67.2988   95.5656    8.9420 O.3     1  UNL1       -0.3449
     26 C          66.6410   96.2454   10.1060 C.3     1  UNL1        0.1929
     27 C          66.2325   95.4467   11.3081 C.3     1  UNL1        0.2343
@<TRIPOS>BOND
     1     2     3    1
     2     3     4    1
     3     3     5    1
     4     5     6    1
     5     6     7   am
     6     7     8    2
     7     7     1    1
     8     1    15    1
     9    15    16    1
    10    16    17    2
    11    17    22    1
    12    22    23    1
    13    23    24    1
    14    24    25    1
    15    25    26    1
    16    26    27    1
    17    17    18    1
    18    18    19    1
    19    19    20    2
    20    19    21    1
    21     6     9    1
    22     9    10   ar
    23    10    11   ar
    24    11    12   ar
    25    12    13   ar
    26    13    14   ar
    27    14     3    1
    28    21    15    2
    29    14     9   ar
    30    27    22    1
@<TRIPOS>MOLECULE
*****
 27 30 0 0 0
SMALL
GASTEIGER

@<TRIPOS>ATOM
      1 C          61.5489   88.7598   11.0592 C.3     1  UNL1        0.2068
      2 C          64.0542   89.7424   15.2208 C.3     1  UNL1        0.0061
      3 C          64.4231   90.6604   14.0933 C.3     1  UNL1        0.0387
      4 C          65.3551   91.2665   15.1003 C.3     1  UNL1        0.0061
      5 C          63.4140   89.8624   13.3221 C.3     1  UNL1        0.1022
      6 N          63.3540   90.4139   11.9284 N.am    1  UNL1       -0.2581
      7 C          62.4761   89.9143   10.8195 C.2     1  UNL1        0.2419
      8 O          62.5254   90.5691    9.4710 O.2     1  UNL1       -0.2739
      9 C          64.3262   91.5527   11.8383 C.ar    1  UNL1        0.0499
     10 C          64.6951   92.4706   10.7108 C.ar    1  UNL1        0.0146
     11 C          65.7247   93.5409   10.9213 C.ar    1  UNL1        0.0013
     12 C          66.3854   93.6933   12.2593 C.ar    1  UNL1       -0.0002
     13 C          66.0165   92.7753   13.3868 C.ar    1  UNL1       -0.0030
     14 C          64.9869   91.7051   13.1763 C.ar    1  UNL1       -0.0075
     15 C          62.0014   87.3605   10.7636 C.2     1  UNL1        0.3580
     16 N          62.2650   86.4042   11.8887 N.2     1  UNL1       -0.0039
     17 C          62.7176   85.0050   11.5931 C.2     1  UNL1        0.3159
     18 C          62.9064   84.5621   10.1725 C.3     1  UNL1        0.2333
     19 C          62.6428   85.5185    9.0474 C.2     1  UNL1        0.3644
     20 O          62.8316   85.0756    7.6268 O.2     1  UNL1       -0.2422
     21 N          62.1903   86.9177    9.3430 N.am    1  UNL1        0.0289
     22 N          62.9813   84.0485   12.7183 N.pl3   1  UNL1       -0.1888
     23 C          62.7661   82.5776   12.5182 C.3     1  UNL1        0.2343
     24 C          63.0297   81.6211   13.6432 C.3     1  UNL1        0.1929
     25 O          63.5086   82.1357   14.9683 O.3     1  UNL1       -0.3449
     26 C          63.7237   83.6066   15.1684 C.3     1  UNL1        0.1929
     27 C          63.4601   84.5631   14.0434 C.3     1  UNL1        0.2343
@<TRIPOS>BOND
     1     2     3    1
     2     3     4    1
     3     3     5    1
     4     5     6    1
     5     6     7   am
     6     7     8    2
     7     7     1    1
     8     1    15    1
     9    15    16    1
    10    16    17    2
    11    17    22    1
    12    22    23    1
    13    23    24    1
    14    24    25    1
    15    25    26    1
    16    26    27    1
    17    17    18    1
    18    18    19    1
    19    19    20    2
    20    19    21    1
    21     6     9    1
    22     9    10   ar
    23    10    11   ar
    24    11    12   ar
    25    12    13   ar
    26    13    14   ar
    27    14     3    1
    28    21    15    2
    29    14     9   ar
    30    27    22    1
@<TRIPOS>MOLECULE
*****
 27 30 0 0 0
SMALL
GASTEIGER

@<TRIPOS>ATOM
      1 C          63.3800   90.4775   13.1366 C.3     1  UNL1        0.2068
      2 C          61.3079   87.7789    9.5331 C.3     1  UNL1        0.0061
      3 C          61.9942   86.9348   10.5659 C.3     1  UNL1        0.0387
      4 C          61.5317   85.7919    9.7116 C.3     1  UNL1        0.0061
      5 C          62.3133   88.2541   11.2043 C.3     1  UNL1        0.1022
      6 N          63.1001   87.9865   12.4531 N.am    1  UNL1       -0.2581
      7 C          63.6271   89.0219   13.4019 C.2     1  UNL1        0.2419
      8 O          64.4012   88.6017   14.6160 O.2     1  UNL1       -0.2739
      9 C          63.2673   86.5019   12.5864 C.ar    1  UNL1        0.0499
     10 C          63.9536   85.6579   13.6192 C.ar    1  UNL1        0.0146
     11 C          63.9564   84.1639   13.4856 C.ar    1  UNL1        0.0013
     12 C          63.2730   83.5138   12.3192 C.ar    1  UNL1       -0.0002
     13 C          62.5867   84.3578   11.2865 C.ar    1  UNL1       -0.0030
     14 C          62.5838   85.8518   11.4201 C.ar    1  UNL1       -0.0075
     15 C          64.4909   91.4705   13.3095 C.2     1  UNL1        0.3580
     16 N          65.0014   92.2381   12.1264 N.2     1  UNL1       -0.0039
     17 C          66.1123   93.2312   12.2993 C.2     1  UNL1        0.3159
     18 C          66.7126   93.4564   13.6553 C.3     1  UNL1        0.2333
     19 C          66.2021   92.6887   14.8385 C.2     1  UNL1        0.3644
     20 O          66.8023   92.9140   16.1946 O.2     1  UNL1       -0.2422
     21 N          65.0912   91.6957   14.6656 N.am    1  UNL1        0.0289
     22 N          66.6230   93.9989   11.1161 N.pl3   1  UNL1       -0.1888
     23 C          66.4233   95.4837   11.0425 C.3     1  UNL1        0.2343
     24 C          66.9338   96.2515    9.8594 C.3     1  UNL1        0.1929
     25 O          67.6441   95.5344    8.7498 O.3     1  UNL1       -0.3449
     26 C          67.8438   94.0496    8.8233 C.3     1  UNL1        0.1929
     27 C          67.3333   93.2818   10.0064 C.3     1  UNL1        0.2343
@<TRIPOS>BOND
     1     2     3    1
     2     3     4    1
     3     3     5    1
     4     5     6    1
     5     6     7   am
     6     7     8    2
     7     7     1    1
     8     1    15    1
     9    15    16    1
    10    16    17    2
    11    17    22    1
    12    22    23    1
    13    23    24    1
    14    24    25    1
    15    25    26    1
    16    26    27    1
    17    17    18    1
    18    18    19    1
    19    19    20    2
    20    19    21    1
    21     6     9    1
    22     9    10   ar
    23    10    11   ar
    24    11    12   ar
    25    12    13   ar
    26    13    14   ar
    27    14     3    1
    28    21    15    2
    29    14     9   ar
    30    27    22    1
@<TRIPOS>MOLECULE
*****
 27 30 0 0 0
SMALL
GASTEIGER

@<TRIPOS>ATOM
      1 C          62.3795   89.6011   11.5437 C.3     1  UNL1        0.2068
      2 C          65.4770   93.2194   10.1745 C.3     1  UNL1        0.0061
      3 C          65.5719   92.8995   11.6370 C.3     1  UNL1        0.0387
      4 C          66.6118   93.9804   11.6452 C.3     1  UNL1        0.0061
      5 C          64.5121   91.8855   11.3231 C.3     1  UNL1        0.1022
      6 N          64.1693   91.1649   12.5932 N.am    1  UNL1       -0.2581
      7 C          63.1565   90.0681   12.7389 C.2     1  UNL1        0.2419
      8 O          62.9204   89.4384   14.0796 O.2     1  UNL1       -0.2739
      9 C          65.0173   91.7335   13.6921 C.ar    1  UNL1        0.0499
     10 C          65.1121   91.4136   15.1545 C.ar    1  UNL1        0.0146
     11 C          66.0738   92.1658   16.0259 C.ar    1  UNL1        0.0013
     12 C          66.9406   93.2379   15.4350 C.ar    1  UNL1       -0.0002
     13 C          66.8458   93.5578   13.9726 C.ar    1  UNL1       -0.0030
     14 C          65.8841   92.8056   13.1011 C.ar    1  UNL1       -0.0075
     15 C          62.3746   88.1474   11.1737 C.2     1  UNL1        0.3580
     16 N          62.7212   87.1109   12.2010 N.2     1  UNL1       -0.0039
     17 C          62.7162   85.6573   11.8310 C.2     1  UNL1        0.3159
     18 C          62.3646   85.2402   10.4337 C.3     1  UNL1        0.2333
     19 C          62.0180   86.2767    9.4064 C.2     1  UNL1        0.3644
     20 O          61.6664   85.8596    8.0091 O.2     1  UNL1       -0.2422
     21 N          62.0230   87.7303    9.7764 N.am    1  UNL1        0.0289
     22 N          63.0629   84.6206   12.8584 N.pl3   1  UNL1       -0.1888
     23 C          63.7335   85.0269   14.1371 C.3     1  UNL1        0.2343
     24 C          64.0801   83.9904   15.1644 C.3     1  UNL1        0.1929
     25 O          63.7561   82.5475   14.9130 O.3     1  UNL1       -0.3449
     26 C          63.0855   82.1413   13.6342 C.3     1  UNL1        0.1929
     27 C          62.7389   83.1778   12.6069 C.3     1  UNL1        0.2343
@<TRIPOS>BOND
     1     2     3    1
     2     3     4    1
     3     3     5    1
     4     5     6    1
     5     6     7   am
     6     7     8    2
     7     7     1    1
     8     1    15    1
     9    15    16    1
    10    16    17    2
    11    17    22    1
    12    22    23    1
    13    23    24    1
    14    24    25    1
    15    25    26    1
    16    26    27    1
    17    17    18    1
    18    18    19    1
    19    19    20    2
    20    19    21    1
    21     6     9    1
    22     9    10   ar
    23    10    11   ar
    24    11    12   ar
    25    12    13   ar
    26    13    14   ar
    27    14     3    1
    28    21    15    2
    29    14     9   ar
    30    27    22    1
@<TRIPOS>MOLECULE
*****
 27 30 0 0 0
SMALL
GASTEIGER

@<TRIPOS>ATOM
      1 C          64.3171   86.4466   14.0495 C.3     1  UNL1        0.2068
      2 C          64.7148   83.3151   10.2290 C.3     1  UNL1        0.0061
      3 C          63.8722   82.7657   11.3418 C.3     1  UNL1        0.0387
      4 C          63.7400   81.5732   10.4415 C.3     1  UNL1        0.0061
      5 C          64.1807   84.0730   12.0094 C.3     1  UNL1        0.1022
      6 N          63.5011   84.0822   13.3466 N.am    1  UNL1       -0.2581
      7 C          63.5426   85.1973   14.3490 C.2     1  UNL1        0.2419
      8 O          62.8098   85.0632   15.6508 O.2     1  UNL1       -0.2739
      9 C          62.7726   82.7806   13.5054 C.ar    1  UNL1        0.0499
     10 C          61.9301   82.2312   14.6181 C.ar    1  UNL1        0.0146
     11 C          61.3170   80.8682   14.4918 C.ar    1  UNL1        0.0013
     12 C          61.5464   80.0545   13.2527 C.ar    1  UNL1       -0.0002
     13 C          62.3889   80.6038   12.1400 C.ar    1  UNL1       -0.0030
     14 C          63.0020   81.9669   12.2663 C.ar    1  UNL1       -0.0075
     15 C          63.6761   87.5583   13.2727 C.2     1  UNL1        0.3580
     16 N          62.8145   87.2439   12.0858 N.2     1  UNL1       -0.0039
     17 C          62.1735   88.3555   11.3090 C.2     1  UNL1        0.3159
     18 C          62.3942   89.7814   11.7190 C.3     1  UNL1        0.2333
     19 C          63.2559   90.0958   12.9059 C.2     1  UNL1        0.3644
     20 O          63.4766   91.5216   13.3159 O.2     1  UNL1       -0.2422
     21 N          63.8968   88.9841   13.6827 N.am    1  UNL1        0.0289
     22 N          61.3118   88.0413   10.1220 N.pl3   1  UNL1       -0.1888
     23 C          60.6916   89.1538    9.3298 C.3     1  UNL1        0.2343
     24 C          59.8299   88.8396    8.1429 C.3     1  UNL1        0.1929
     25 O          59.5884   87.4128    7.7482 O.3     1  UNL1       -0.3449
     26 C          60.2086   86.3002    8.5404 C.3     1  UNL1        0.1929
     27 C          61.0703   86.6144    9.7273 C.3     1  UNL1        0.2343
@<TRIPOS>BOND
     1     2     3    1
     2     3     4    1
     3     3     5    1
     4     5     6    1
     5     6     7   am
     6     7     8    2
     7     7     1    1
     8     1    15    1
     9    15    16    1
    10    16    17    2
    11    17    22    1
    12    22    23    1
    13    23    24    1
    14    24    25    1
    15    25    26    1
    16    26    27    1
    17    17    18    1
    18    18    19    1
    19    19    20    2
    20    19    21    1
    21     6     9    1
    22     9    10   ar
    23    10    11   ar
    24    11    12   ar
    25    12    13   ar
    26    13    14   ar
    27    14     3    1
    28    21    15    2
    29    14     9   ar
    30    27    22    1
@<TRIPOS>MOLECULE
*****
 27 30 0 0 0
SMALL
GASTEIGER

@<TRIPOS>ATOM
      1 C          63.4416   90.3125   13.4876 C.3     1  UNL1        0.2068
      2 C          63.2425   85.3972   12.8865 C.3     1  UNL1        0.0061
      3 C          62.5736   86.1439   11.7706 C.3     1  UNL1        0.0387
      4 C          62.3007   84.7726   11.2274 C.3     1  UNL1        0.0061
      5 C          62.9864   87.3591   12.5471 C.3     1  UNL1        0.1022
      6 N          62.5156   88.5700   11.7975 N.am    1  UNL1       -0.2581
      7 C          62.7138   89.9972   12.2144 C.2     1  UNL1        0.2419
      8 O          62.1843   91.1092   11.3582 O.2     1  UNL1       -0.2739
      9 C          61.8118   88.1033   10.5578 C.ar    1  UNL1        0.0499
     10 C          61.1430   88.8499    9.4419 C.ar    1  UNL1        0.0146
     11 C          60.5100   88.0971    8.3095 C.ar    1  UNL1        0.0013
     12 C          60.5458   86.5976    8.2929 C.ar    1  UNL1       -0.0002
     13 C          61.2147   85.8509    9.4087 C.ar    1  UNL1       -0.0030
     14 C          61.8477   86.6038   10.5412 C.ar    1  UNL1       -0.0075
     15 C          64.7142   91.1055   13.4474 C.2     1  UNL1        0.3580
     16 N          64.9762   92.0459   12.3086 N.2     1  UNL1       -0.0039
     17 C          66.2489   92.8388   12.2684 C.2     1  UNL1        0.3159
     18 C          67.2595   92.6913   13.3670 C.3     1  UNL1        0.2333
     19 C          66.9975   91.7509   14.5058 C.2     1  UNL1        0.3644
     20 O          68.0081   91.6035   15.6044 O.2     1  UNL1       -0.2422
     21 N          65.7248   90.9580   14.5460 N.am    1  UNL1        0.0289
     22 N          66.5109   93.7793   11.1295 N.pl3   1  UNL1       -0.1888
     23 C          66.1030   95.2188   11.2364 C.3     1  UNL1        0.2343
     24 C          66.3650   96.1592   10.0977 C.3     1  UNL1        0.1929
     25 O          67.0350   95.6601    8.8519 O.3     1  UNL1       -0.3449
     26 C          67.4429   94.2206    8.7449 C.3     1  UNL1        0.1929
     27 C          67.1809   93.2802    9.8837 C.3     1  UNL1        0.2343
@<TRIPOS>BOND
     1     2     3    1
     2     3     4    1
     3     3     5    1
     4     5     6    1
     5     6     7   am
     6     7     8    2
     7     7     1    1
     8     1    15    1
     9    15    16    1
    10    16    17    2
    11    17    22    1
    12    22    23    1
    13    23    24    1
    14    24    25    1
    15    25    26    1
    16    26    27    1
    17    17    18    1
    18    18    19    1
    19    19    20    2
    20    19    21    1
    21     6     9    1
    22     9    10   ar
    23    10    11   ar
    24    11    12   ar
    25    12    13   ar
    26    13    14   ar
    27    14     3    1
    28    21    15    2
    29    14     9   ar
    30    27    22    1
@<TRIPOS>MOLECULE
*****
 27 30 0 0 0
SMALL
GASTEIGER

@<TRIPOS>ATOM
      1 C          63.1387   89.2523   12.7192 C.3     1  UNL1        0.2068
      2 C          66.0856   92.0829   15.5236 C.3     1  UNL1        0.0061
      3 C          65.9417   92.6059   14.1250 C.3     1  UNL1        0.0387
      4 C          66.8583   93.6919   14.6049 C.3     1  UNL1        0.0061
      5 C          65.0552   91.4105   13.9375 C.3     1  UNL1        0.1022
      6 N          64.5551   91.4217   12.5234 N.am    1  UNL1       -0.2581
      7 C          63.6384   90.4085   11.9044 C.2     1  UNL1        0.2419
      8 O          63.2214   90.5512   10.4707 O.2     1  UNL1       -0.2739
      9 C          65.1325   92.6239   11.8369 C.ar    1  UNL1        0.0499
     10 C          64.9886   93.1467   10.4384 C.ar    1  UNL1        0.0146
     11 C          65.7017   94.4015   10.0298 C.ar    1  UNL1        0.0013
     12 C          66.5587   95.1334   11.0196 C.ar    1  UNL1       -0.0002
     13 C          66.7026   94.6105   12.4181 C.ar    1  UNL1       -0.0030
     14 C          65.9895   93.3558   12.8268 C.ar    1  UNL1       -0.0075
     15 C          62.6619   88.0045   12.0369 C.2     1  UNL1        0.3580
     16 N          63.1001   86.6608   12.5395 N.2     1  UNL1       -0.0039
     17 C          62.6233   85.4130   11.8572 C.2     1  UNL1        0.3159
     18 C          61.7083   85.5088   10.6725 C.3     1  UNL1        0.2333
     19 C          61.2701   86.8524   10.1699 C.2     1  UNL1        0.3644
     20 O          60.3551   86.9482    8.9852 O.2     1  UNL1       -0.2422
     21 N          61.7469   88.1003   10.8522 N.am    1  UNL1        0.0289
     22 N          63.0614   84.0692   12.3598 N.pl3   1  UNL1       -0.1888
     23 C          62.6004   83.5836   13.7020 C.3     1  UNL1        0.2343
     24 C          63.0386   82.2400   14.2046 C.3     1  UNL1        0.1929
     25 O          63.9377   81.3819   13.3648 O.3     1  UNL1       -0.3449
     26 C          64.3987   81.8675   12.0226 C.3     1  UNL1        0.1929
     27 C          63.9606   83.2111   11.5200 C.3     1  UNL1        0.2343
@<TRIPOS>BOND
     1     2     3    1
     2     3     4    1
     3     3     5    1
     4     5     6    1
     5     6     7   am
     6     7     8    2
     7     7     1    1
     8     1    15    1
     9    15    16    1
    10    16    17    2
    11    17    22    1
    12    22    23    1
    13    23    24    1
    14    24    25    1
    15    25    26    1
    16    26    27    1
    17    17    18    1
    18    18    19    1
    19    19    20    2
    20    19    21    1
    21     6     9    1
    22     9    10   ar
    23    10    11   ar
    24    11    12   ar
    25    12    13   ar
    26    13    14   ar
    27    14     3    1
    28    21    15    2
    29    14     9   ar
    30    27    22    1
@<TRIPOS>MOLECULE
*****
 27 30 0 0 0
SMALL
GASTEIGER

@<TRIPOS>ATOM
      1 C          62.5932   89.5902   12.2888 C.3     1  UNL1        0.2068
      2 C          65.3901   93.2235   10.4080 C.3     1  UNL1        0.0061
      3 C          65.6525   92.9874   11.8659 C.3     1  UNL1        0.0387
      4 C          66.6466   94.0992   11.7057 C.3     1  UNL1        0.0061
      5 C          64.6036   91.9249   11.7213 C.3     1  UNL1        0.1022
      6 N          64.4256   91.2646   13.0563 N.am    1  UNL1       -0.2581
      7 C          63.4755   90.1462   13.3670 C.2     1  UNL1        0.2419
      8 O          63.4077   89.5838   14.7559 O.2     1  UNL1       -0.2739
      9 C          65.3645   91.9189   14.0260 C.ar    1  UNL1        0.0499
     10 C          65.6269   91.6827   15.4838 C.ar    1  UNL1        0.0146
     11 C          66.6476   92.5113   16.2059 C.ar    1  UNL1        0.0013
     12 C          67.4059   93.5761   15.4702 C.ar    1  UNL1       -0.0002
     13 C          67.1435   93.8123   14.0124 C.ar    1  UNL1       -0.0030
     14 C          66.1228   92.9837   13.2903 C.ar    1  UNL1       -0.0075
     15 C          62.6771   88.1372   11.9259 C.2     1  UNL1        0.3580
     16 N          62.2263   87.6752   10.5720 N.2     1  UNL1       -0.0039
     17 C          62.3103   86.2222   10.2091 C.2     1  UNL1        0.3159
     18 C          62.8451   85.2313   11.2001 C.3     1  UNL1        0.2333
     19 C          63.2959   85.6933   12.5540 C.2     1  UNL1        0.3644
     20 O          63.8308   84.7025   13.5450 O.2     1  UNL1       -0.2422
     21 N          63.2120   87.1464   12.9169 N.am    1  UNL1        0.0289
     22 N          61.8595   85.7600    8.8550 N.pl3   1  UNL1       -0.1888
     23 C          62.8080   85.0163    7.9621 C.3     1  UNL1        0.2343
     24 C          62.3572   84.5542    6.6082 C.3     1  UNL1        0.1929
     25 O          60.9579   84.8357    6.1472 O.3     1  UNL1       -0.3449
     26 C          60.0093   85.5794    7.0401 C.3     1  UNL1        0.1929
     27 C          60.4601   86.0415    8.3940 C.3     1  UNL1        0.2343
@<TRIPOS>BOND
     1     2     3    1
     2     3     4    1
     3     3     5    1
     4     5     6    1
     5     6     7   am
     6     7     8    2
     7     7     1    1
     8     1    15    1
     9    15    16    1
    10    16    17    2
    11    17    22    1
    12    22    23    1
    13    23    24    1
    14    24    25    1
    15    25    26    1
    16    26    27    1
    17    17    18    1
    18    18    19    1
    19    19    20    2
    20    19    21    1
    21     6     9    1
    22     9    10   ar
    23    10    11   ar
    24    11    12   ar
    25    12    13   ar
    26    13    14   ar
    27    14     3    1
    28    21    15    2
    29    14     9   ar
    30    27    22    1
