@<TRIPOS>MOLECULE
*****
 24 27 0 0 0
SMALL
GASTEIGER

@<TRIPOS>ATOM
      1 C          63.5941   86.0024   13.4692 C.ar    1  UNL1        0.0191
      2 C          64.2514   86.4792   14.7304 C.ar    1  UNL1        0.0046
      3 C          64.4371   87.9482   14.9703 C.ar    1  UNL1        0.0369
      4 C          63.9654   88.9404   13.9491 C.ar    1  UNL1        0.1384
      5 C          63.3081   88.4636   12.6879 C.ar    1  UNL1        0.0369
      6 C          63.1225   86.9946   12.4480 C.ar    1  UNL1        0.0046
      7 O          62.8516   80.1264   12.5096 O.2     1  UNL1       -0.2711
      8 C          63.0372   81.5954   12.7495 C.2     1  UNL1        0.2671
      9 C          62.8280   82.5706   11.6292 C.3     1  UNL1        0.1163
     10 C          63.0137   84.0396   11.8691 C.2     1  UNL1        0.0043
     11 C          63.4085   84.5334   13.2293 C.2     1  UNL1        0.0968
     12 N          63.6177   83.5582   14.3496 N.2     1  UNL1       -0.1564
     13 N          63.4320   82.0892   14.1097 N.am    1  UNL1       -0.0790
     14 O          64.1510   90.4094   14.1890 O.3     1  UNL1       -0.4791
     15 C          64.8186   91.2606   13.1499 C.3     1  UNL1        0.1687
     16 C          64.1530   91.4865   11.8247 C.3     1  UNL1        0.0609
     17 C          64.8206   92.3377   10.7855 C.3     1  UNL1        0.0758
     18 N          66.1537   92.9630   11.0715 N.3     1  UNL1       -0.2737
     19 C          66.8193   92.7371   12.3966 C.3     1  UNL1        0.0758
     20 C          66.1517   91.8859   13.4358 C.3     1  UNL1        0.0609
     21 C          66.8213   93.8142   10.0323 C.3     1  UNL1        0.0575
     22 C          66.6233   95.2085    9.5162 C.3     1  UNL1        0.0160
     23 C          67.7654   95.0179    8.5627 C.3     1  UNL1        0.0028
     24 C          67.9635   93.6235    9.0789 C.3     1  UNL1        0.0160
@<TRIPOS>BOND
     1     7     8    2
     2     8     9    1
     3     9    10    1
     4    10    11    2
     5    11     1    1
     6     1     2   ar
     7     2     3   ar
     8     3     4   ar
     9     4    14    1
    10    14    15    1
    11    15    16    1
    12    16    17    1
    13    17    18    1
    14    18    21    1
    15    21    22    1
    16    22    23    1
    17    23    24    1
    18    18    19    1
    19    19    20    1
    20     4     5   ar
    21     5     6   ar
    22    11    12    1
    23    12    13    2
    24    13     8    1
    25     6     1   ar
    26    20    15    1
    27    24    21    1
@<TRIPOS>MOLECULE
*****
 24 27 0 0 0
SMALL
GASTEIGER

@<TRIPOS>ATOM
      1 C          65.9026   92.6807   12.0457 C.ar    1  UNL1        0.0191
      2 C          64.5938   91.9919   11.7953 C.ar    1  UNL1        0.0046
      3 C          64.1004   90.9482   12.7530 C.ar    1  UNL1        0.0369
      4 C          64.9157   90.5932   13.9610 C.ar    1  UNL1        0.1384
      5 C          66.2244   91.2820   14.2113 C.ar    1  UNL1        0.0369
      6 C          66.7179   92.3257   13.2536 C.ar    1  UNL1        0.0046
      7 O          67.8764   96.8556    8.2150 O.2     1  UNL1       -0.2711
      8 C          67.3830   95.8119    9.1727 C.2     1  UNL1        0.2671
      9 C          67.6465   94.3604    8.9013 C.3     1  UNL1        0.1163
     10 C          67.1530   93.3167    9.8589 C.2     1  UNL1        0.0043
     11 C          66.3960   93.7244   11.0880 C.2     1  UNL1        0.0968
     12 N          66.1326   95.1759   11.3594 N.2     1  UNL1       -0.1564
     13 N          66.6260   96.2196   10.4018 N.am    1  UNL1       -0.0790
     14 O          64.4222   89.5495   14.9186 O.3     1  UNL1       -0.4791
     15 C          64.0948   88.1720   14.4234 C.3     1  UNL1        0.1687
     16 C          64.3440   86.9808   15.3003 C.3     1  UNL1        0.0609
     17 C          64.0166   85.6033   14.8051 C.3     1  UNL1        0.0758
     18 N          63.4400   85.4170   13.4329 N.3     1  UNL1       -0.2737
     19 C          63.1908   86.6081   12.5560 C.3     1  UNL1        0.0758
     20 C          63.5182   87.9857   13.0512 C.3     1  UNL1        0.0609
     21 C          63.1126   84.0394   12.9377 C.3     1  UNL1        0.0575
     22 C          62.9922   82.6853   13.5714 C.3     1  UNL1        0.0160
     23 C          62.6496   82.0913   12.2372 C.3     1  UNL1        0.0028
     24 C          62.7701   83.4455   11.6035 C.3     1  UNL1        0.0160
@<TRIPOS>BOND
     1     7     8    2
     2     8     9    1
     3     9    10    1
     4    10    11    2
     5    11     1    1
     6     1     2   ar
     7     2     3   ar
     8     3     4   ar
     9     4    14    1
    10    14    15    1
    11    15    16    1
    12    16    17    1
    13    17    18    1
    14    18    21    1
    15    21    22    1
    16    22    23    1
    17    23    24    1
    18    18    19    1
    19    19    20    1
    20     4     5   ar
    21     5     6   ar
    22    11    12    1
    23    12    13    2
    24    13     8    1
    25     6     1   ar
    26    20    15    1
    27    24    21    1
@<TRIPOS>MOLECULE
*****
 24 27 0 0 0
SMALL
GASTEIGER

@<TRIPOS>ATOM
      1 C          64.9118   91.2678   13.7973 C.ar    1  UNL1        0.0191
      2 C          64.0774   90.3853   14.6775 C.ar    1  UNL1        0.0046
      3 C          62.8325   89.7473   14.1359 C.ar    1  UNL1        0.0369
      4 C          62.4220   89.9920   12.7140 C.ar    1  UNL1        0.1384
      5 C          63.2564   90.8746   11.8338 C.ar    1  UNL1        0.0369
      6 C          64.5013   91.5125   12.3755 C.ar    1  UNL1        0.0046
      7 O          69.8912   93.8196   15.9638 O.2     1  UNL1       -0.2711
      8 C          68.6464   93.1816   15.4222 C.2     1  UNL1        0.2671
      9 C          67.3982   93.1481   16.2534 C.3     1  UNL1        0.1163
     10 C          66.1533   92.5102   15.7117 C.2     1  UNL1        0.0043
     11 C          66.1566   91.9058   14.3389 C.2     1  UNL1        0.0968
     12 N          67.4048   91.9393   13.5078 N.2     1  UNL1       -0.1564
     13 N          68.6497   92.5772   14.0494 N.am    1  UNL1       -0.0790
     14 O          61.1772   89.3541   12.1724 O.3     1  UNL1       -0.4791
     15 C          61.2649   88.3976   11.0203 C.3     1  UNL1        0.1687
     16 C          60.4292   88.6209    9.7948 C.3     1  UNL1        0.0609
     17 C          60.5169   87.6644    8.6427 C.3     1  UNL1        0.0758
     18 N          61.4403   86.4845    8.7160 N.3     1  UNL1       -0.2737
     19 C          62.2759   86.2612    9.9415 C.3     1  UNL1        0.0758
     20 C          62.1883   87.2177   11.0936 C.3     1  UNL1        0.0609
     21 C          61.5280   85.5280    7.5638 C.3     1  UNL1        0.0575
     22 C          60.5392   84.9125    6.6187 C.3     1  UNL1        0.0160
     23 C          61.6520   84.1753    5.9345 C.3     1  UNL1        0.0028
     24 C          62.6408   84.7909    6.8796 C.3     1  UNL1        0.0160
@<TRIPOS>BOND
     1     7     8    2
     2     8     9    1
     3     9    10    1
     4    10    11    2
     5    11     1    1
     6     1     2   ar
     7     2     3   ar
     8     3     4   ar
     9     4    14    1
    10    14    15    1
    11    15    16    1
    12    16    17    1
    13    17    18    1
    14    18    21    1
    15    21    22    1
    16    22    23    1
    17    23    24    1
    18    18    19    1
    19    19    20    1
    20     4     5   ar
    21     5     6   ar
    22    11    12    1
    23    12    13    2
    24    13     8    1
    25     6     1   ar
    26    20    15    1
    27    24    21    1
@<TRIPOS>MOLECULE
*****
 24 27 0 0 0
SMALL
GASTEIGER

@<TRIPOS>ATOM
      1 C          65.8234   92.3699   12.2650 C.ar    1  UNL1        0.0191
      2 C          64.4588   91.7752   12.0805 C.ar    1  UNL1        0.0046
      3 C          63.9174   90.8113   13.0943 C.ar    1  UNL1        0.0369
      4 C          64.7406   90.4421   14.2926 C.ar    1  UNL1        0.1384
      5 C          66.1052   91.0368   14.4771 C.ar    1  UNL1        0.0369
      6 C          66.6466   92.0007   13.4633 C.ar    1  UNL1        0.0046
      7 O          67.9890   96.2255    8.2098 O.2     1  UNL1       -0.2711
      8 C          67.4476   95.2616    9.2236 C.2     1  UNL1        0.2671
      9 C          66.1689   95.5707    9.9443 C.3     1  UNL1        0.1163
     10 C          65.6275   94.6068   10.9581 C.2     1  UNL1        0.0043
     11 C          66.3648   93.3338   11.2512 C.2     1  UNL1        0.0968
     12 N          67.6434   93.0247   10.5305 N.2     1  UNL1       -0.1564
     13 N          68.1848   93.9886    9.5167 N.am    1  UNL1       -0.0790
     14 O          64.1992   89.4782   15.3064 O.3     1  UNL1       -0.4791
     15 C          63.9645   88.0456   14.9287 C.3     1  UNL1        0.1687
     16 C          63.7885   87.6691   13.4873 C.3     1  UNL1        0.0609
     17 C          63.5538   86.2366   13.1096 C.3     1  UNL1        0.0758
     18 N          63.4952   85.1805   14.1732 N.3     1  UNL1       -0.2737
     19 C          63.6712   85.5569   15.6145 C.3     1  UNL1        0.0758
     20 C          63.9059   86.9895   15.9922 C.3     1  UNL1        0.0609
     21 C          63.2605   83.7478   13.7955 C.3     1  UNL1        0.0575
     22 C          62.4068   82.6363   14.3297 C.3     1  UNL1        0.0160
     23 C          62.9287   81.7219   13.2612 C.3     1  UNL1        0.0028
     24 C          63.7824   82.8335   12.7270 C.3     1  UNL1        0.0160
@<TRIPOS>BOND
     1     7     8    2
     2     8     9    1
     3     9    10    1
     4    10    11    2
     5    11     1    1
     6     1     2   ar
     7     2     3   ar
     8     3     4   ar
     9     4    14    1
    10    14    15    1
    11    15    16    1
    12    16    17    1
    13    17    18    1
    14    18    21    1
    15    21    22    1
    16    22    23    1
    17    23    24    1
    18    18    19    1
    19    19    20    1
    20     4     5   ar
    21     5     6   ar
    22    11    12    1
    23    12    13    2
    24    13     8    1
    25     6     1   ar
    26    20    15    1
    27    24    21    1
@<TRIPOS>MOLECULE
*****
 24 27 0 0 0
SMALL
GASTEIGER

@<TRIPOS>ATOM
      1 C          65.0598   92.4582   11.1162 C.ar    1  UNL1        0.0191
      2 C          65.5377   91.9506   12.4444 C.ar    1  UNL1        0.0046
      3 C          64.7907   90.8517   13.1403 C.ar    1  UNL1        0.0369
      4 C          63.5658   90.2602   12.5080 C.ar    1  UNL1        0.1384
      5 C          63.0879   90.7677   11.1799 C.ar    1  UNL1        0.0369
      6 C          63.8349   91.8667   10.4840 C.ar    1  UNL1        0.0046
      7 O          68.0478   96.8540    8.3327 O.2     1  UNL1       -0.2711
      8 C          67.3008   95.7551    9.0286 C.2     1  UNL1        0.2671
      9 C          67.8557   94.3616    9.0403 C.3     1  UNL1        0.1163
     10 C          67.1087   93.2626    9.7362 C.2     1  UNL1        0.0043
     11 C          65.8068   93.5571   10.4203 C.2     1  UNL1        0.0968
     12 N          65.2518   94.9506   10.4086 N.2     1  UNL1       -0.1564
     13 N          65.9988   96.0496    9.7127 N.am    1  UNL1       -0.0790
     14 O          62.8188   89.1612   13.2039 O.3     1  UNL1       -0.4791
     15 C          62.9475   87.7460   12.7237 C.3     1  UNL1        0.1687
     16 C          62.3674   87.3478   11.3990 C.3     1  UNL1        0.0609
     17 C          62.4961   85.9326   10.9188 C.3     1  UNL1        0.0758
     18 N          63.2049   84.9156   11.7634 N.3     1  UNL1       -0.2737
     19 C          63.7850   85.3138   13.0881 C.3     1  UNL1        0.0758
     20 C          63.6563   86.7290   13.5683 C.3     1  UNL1        0.0609
     21 C          63.3336   83.5003   11.2832 C.3     1  UNL1        0.0575
     22 C          62.8413   82.1679   11.7649 C.3     1  UNL1        0.0160
     23 C          63.5156   81.4989   10.6040 C.3     1  UNL1        0.0028
     24 C          64.0080   82.8314   10.1223 C.3     1  UNL1        0.0160
@<TRIPOS>BOND
     1     7     8    2
     2     8     9    1
     3     9    10    1
     4    10    11    2
     5    11     1    1
     6     1     2   ar
     7     2     3   ar
     8     3     4   ar
     9     4    14    1
    10    14    15    1
    11    15    16    1
    12    16    17    1
    13    17    18    1
    14    18    21    1
    15    21    22    1
    16    22    23    1
    17    23    24    1
    18    18    19    1
    19    19    20    1
    20     4     5   ar
    21     5     6   ar
    22    11    12    1
    23    12    13    2
    24    13     8    1
    25     6     1   ar
    26    20    15    1
    27    24    21    1
@<TRIPOS>MOLECULE
*****
 24 27 0 0 0
SMALL
GASTEIGER

@<TRIPOS>ATOM
      1 C          61.7070   87.3077    9.8089 C.ar    1  UNL1        0.0191
      2 C          60.9181   88.5835    9.8116 C.ar    1  UNL1        0.0046
      3 C          61.0037   89.5158   10.9836 C.ar    1  UNL1        0.0369
      4 C          61.8781   89.1723   12.1529 C.ar    1  UNL1        0.1384
      5 C          62.6670   87.8965   12.1502 C.ar    1  UNL1        0.0369
      6 C          62.5814   86.9642   10.9782 C.ar    1  UNL1        0.0046
      7 O          61.3646   83.5786    5.1210 O.2     1  UNL1       -0.2711
      8 C          61.4502   84.5109    6.2930 C.2     1  UNL1        0.2671
      9 C          62.7479   84.6758    7.0270 C.3     1  UNL1        0.1163
     10 C          62.8335   85.6080    8.1989 C.2     1  UNL1        0.0043
     11 C          61.6214   86.3755    8.6369 C.2     1  UNL1        0.0968
     12 N          60.3237   86.2106    7.9029 N.2     1  UNL1       -0.1564
     13 N          60.2381   85.2783    6.7309 N.am    1  UNL1       -0.0790
     14 O          61.9637   90.1046   13.3248 O.3     1  UNL1       -0.4791
     15 C          63.2889   90.6768   13.7328 C.3     1  UNL1        0.1687
     16 C          64.2094   91.2500   12.6964 C.3     1  UNL1        0.0609
     17 C          65.5346   91.8222   13.1043 C.3     1  UNL1        0.0758
     18 N          65.9393   91.8213   14.5487 N.3     1  UNL1       -0.2737
     19 C          65.0188   91.2481   15.5851 C.3     1  UNL1        0.0758
     20 C          63.6936   90.6759   15.1772 C.3     1  UNL1        0.0609
     21 C          67.2645   92.3935   14.9566 C.3     1  UNL1        0.0575
     22 C          68.6505   92.3725   14.3836 C.3     1  UNL1        0.0160
     23 C          69.1386   93.2029   15.5336 C.3     1  UNL1        0.0028
     24 C          67.7525   93.2239   16.1066 C.3     1  UNL1        0.0160
@<TRIPOS>BOND
     1     7     8    2
     2     8     9    1
     3     9    10    1
     4    10    11    2
     5    11     1    1
     6     1     2   ar
     7     2     3   ar
     8     3     4   ar
     9     4    14    1
    10    14    15    1
    11    15    16    1
    12    16    17    1
    13    17    18    1
    14    18    21    1
    15    21    22    1
    16    22    23    1
    17    23    24    1
    18    18    19    1
    19    19    20    1
    20     4     5   ar
    21     5     6   ar
    22    11    12    1
    23    12    13    2
    24    13     8    1
    25     6     1   ar
    26    20    15    1
    27    24    21    1
@<TRIPOS>MOLECULE
*****
 24 27 0 0 0
SMALL
GASTEIGER

@<TRIPOS>ATOM
      1 C          65.2189   91.1536   13.6225 C.ar    1  UNL1        0.0191
      2 C          64.8143   89.8552   14.2552 C.ar    1  UNL1        0.0046
      3 C          63.7834   88.9884   13.5950 C.ar    1  UNL1        0.0369
      4 C          63.1572   89.4199   12.3021 C.ar    1  UNL1        0.1384
      5 C          63.5618   90.7184   11.6695 C.ar    1  UNL1        0.0369
      6 C          64.5927   91.5852   12.3297 C.ar    1  UNL1        0.0046
      7 O          69.3424   94.6210   16.2633 O.2     1  UNL1       -0.2711
      8 C          68.3116   93.7542   15.6031 C.2     1  UNL1        0.2671
      9 C          68.2392   92.2924   15.9315 C.3     1  UNL1        0.1163
     10 C          67.2083   91.4255   15.2713 C.2     1  UNL1        0.0043
     11 C          66.2498   92.0205   14.2827 C.2     1  UNL1        0.0968
     12 N          66.3222   93.4823   13.9544 N.2     1  UNL1       -0.1564
     13 N          67.3531   94.3491   14.6146 N.am    1  UNL1       -0.0790
     14 O          62.1263   88.5531   11.6419 O.3     1  UNL1       -0.4791
     15 C          62.3002   87.0634   11.6225 C.3     1  UNL1        0.1687
     16 C          61.7839   86.2631   10.4635 C.3     1  UNL1        0.0609
     17 C          61.9578   84.7733   10.4441 C.3     1  UNL1        0.0758
     18 N          62.6478   84.0838   11.5835 N.3     1  UNL1       -0.2737
     19 C          63.1641   84.8840   12.7424 C.3     1  UNL1        0.0758
     20 C          62.9903   86.3739   12.7619 C.3     1  UNL1        0.0609
     21 C          62.8217   82.5940   11.5640 C.3     1  UNL1        0.0575
     22 C          63.4067   81.6070   10.5979 C.3     1  UNL1        0.0160
     23 C          63.0675   80.4871   11.5365 C.3     1  UNL1        0.0028
     24 C          62.4825   81.4742   12.5027 C.3     1  UNL1        0.0160
@<TRIPOS>BOND
     1     7     8    2
     2     8     9    1
     3     9    10    1
     4    10    11    2
     5    11     1    1
     6     1     2   ar
     7     2     3   ar
     8     3     4   ar
     9     4    14    1
    10    14    15    1
    11    15    16    1
    12    16    17    1
    13    17    18    1
    14    18    21    1
    15    21    22    1
    16    22    23    1
    17    23    24    1
    18    18    19    1
    19    19    20    1
    20     4     5   ar
    21     5     6   ar
    22    11    12    1
    23    12    13    2
    24    13     8    1
    25     6     1   ar
    26    20    15    1
    27    24    21    1
@<TRIPOS>MOLECULE
*****
 24 27 0 0 0
SMALL
GASTEIGER

@<TRIPOS>ATOM
      1 C          60.9129   86.8175    9.3468 C.ar    1  UNL1        0.0191
      2 C          60.0708   86.2146    8.2618 C.ar    1  UNL1        0.0046
      3 C          59.2086   87.0941    7.4055 C.ar    1  UNL1        0.0369
      4 C          59.1886   88.5764    7.6342 C.ar    1  UNL1        0.1384
      5 C          60.0308   89.1792    8.7192 C.ar    1  UNL1        0.0369
      6 C          60.8929   88.2998    9.5755 C.ar    1  UNL1        0.0046
      7 O          64.3616   83.2997   12.7720 O.2     1  UNL1       -0.2711
      8 C          63.4995   84.1792   11.9157 C.2     1  UNL1        0.2671
      9 C          63.6039   84.1056   10.4212 C.3     1  UNL1        0.1163
     10 C          62.7417   84.9850    9.5649 C.2     1  UNL1        0.0043
     11 C          61.7751   85.9381   10.2031 C.2     1  UNL1        0.0968
     12 N          61.6707   86.0117   11.6976 N.2     1  UNL1       -0.1564
     13 N          62.5329   85.1323   12.5539 N.am    1  UNL1       -0.0790
     14 O          58.3264   89.4558    6.7779 O.3     1  UNL1       -0.4791
     15 C          58.9559   90.3686    5.7677 C.3     1  UNL1        0.1687
     16 C          58.1071   91.3418    5.0045 C.3     1  UNL1        0.0609
     17 C          58.7367   92.2546    3.9943 C.3     1  UNL1        0.0758
     18 N          60.2150   92.1943    3.7474 N.3     1  UNL1       -0.2737
     19 C          61.0638   91.2212    4.5106 C.3     1  UNL1        0.0758
     20 C          60.4342   90.3083    5.5208 C.3     1  UNL1        0.0609
     21 C          60.8445   93.1072    2.7372 C.3     1  UNL1        0.0575
     22 C          60.4132   94.3499    2.0165 C.3     1  UNL1        0.0160
     23 C          61.7348   94.3981    1.3085 C.3     1  UNL1        0.0028
     24 C          62.1660   93.1553    2.0292 C.3     1  UNL1        0.0160
@<TRIPOS>BOND
     1     7     8    2
     2     8     9    1
     3     9    10    1
     4    10    11    2
     5    11     1    1
     6     1     2   ar
     7     2     3   ar
     8     3     4   ar
     9     4    14    1
    10    14    15    1
    11    15    16    1
    12    16    17    1
    13    17    18    1
    14    18    21    1
    15    21    22    1
    16    22    23    1
    17    23    24    1
    18    18    19    1
    19    19    20    1
    20     4     5   ar
    21     5     6   ar
    22    11    12    1
    23    12    13    2
    24    13     8    1
    25     6     1   ar
    26    20    15    1
    27    24    21    1
@<TRIPOS>MOLECULE
*****
 24 27 0 0 0
SMALL
GASTEIGER

@<TRIPOS>ATOM
      1 C          62.8018   85.2827   12.0848 C.ar    1  UNL1        0.0191
      2 C          62.1053   86.0348   10.9898 C.ar    1  UNL1        0.0046
      3 C          62.1287   87.5346   10.9775 C.ar    1  UNL1        0.0369
      4 C          62.8487   88.2822   12.0604 C.ar    1  UNL1        0.1384
      5 C          63.5452   87.5302   13.1554 C.ar    1  UNL1        0.0369
      6 C          63.5218   86.0304   13.1676 C.ar    1  UNL1        0.0046
      7 O          62.7082   79.2836   12.1336 O.2     1  UNL1       -0.2711
      8 C          62.7316   80.7834   12.1214 C.2     1  UNL1        0.2671
      9 C          63.2209   81.5160   10.9074 C.3     1  UNL1        0.1163
     10 C          63.2443   83.0158   10.8952 C.2     1  UNL1        0.0043
     11 C          62.7784   83.7829   12.0970 C.2     1  UNL1        0.0968
     12 N          62.2892   83.0503   13.3110 N.2     1  UNL1       -0.1564
     13 N          62.2658   81.5506   13.3232 N.am    1  UNL1       -0.0790
     14 O          62.8721   89.7820   12.0482 O.3     1  UNL1       -0.4791
     15 C          63.9507   90.5213   12.7831 C.3     1  UNL1        0.1687
     16 C          64.6880   91.6391   12.1072 C.3     1  UNL1        0.0609
     17 C          65.7666   92.3784   12.8421 C.3     1  UNL1        0.0758
     18 N          66.1079   91.9999   14.2528 N.3     1  UNL1       -0.2737
     19 C          65.3706   90.8821   14.9287 C.3     1  UNL1        0.0758
     20 C          64.2919   90.1427   14.1938 C.3     1  UNL1        0.0609
     21 C          67.1865   92.7392   14.9877 C.3     1  UNL1        0.0575
     22 C          68.1857   92.3802   16.0472 C.3     1  UNL1        0.0160
     23 C          68.7119   93.7848   16.0269 C.3     1  UNL1        0.0028
     24 C          67.7127   94.1438   14.9674 C.3     1  UNL1        0.0160
@<TRIPOS>BOND
     1     7     8    2
     2     8     9    1
     3     9    10    1
     4    10    11    2
     5    11     1    1
     6     1     2   ar
     7     2     3   ar
     8     3     4   ar
     9     4    14    1
    10    14    15    1
    11    15    16    1
    12    16    17    1
    13    17    18    1
    14    18    21    1
    15    21    22    1
    16    22    23    1
    17    23    24    1
    18    18    19    1
    19    19    20    1
    20     4     5   ar
    21     5     6   ar
    22    11    12    1
    23    12    13    2
    24    13     8    1
    25     6     1   ar
    26    20    15    1
    27    24    21    1
