@<TRIPOS>MOLECULE
*****
 44 49 0 0 0
SMALL
GASTEIGER

@<TRIPOS>ATOM
      1 N          62.2044   94.5379   -0.4943 N.am    1  UNL1       -0.2222
      2 C          62.4390   93.7466    0.7583 C.2     1  UNL1        0.3219
      3 O          63.7753   93.3632    1.3217 O.2     1  UNL1       -0.2512
      4 N          61.1027   93.4060    1.3486 N.am    1  UNL1       -0.1907
      5 C          60.0422   93.9868    0.4608 C.2     1  UNL1        0.2529
      6 O          58.5610   93.8858    0.6744 O.2     1  UNL1       -0.2724
      7 C          60.7231   94.6863   -0.6782 C.3     1  UNL1        0.1391
      8 C          61.5399   95.3419   -1.7519 C.3     1  UNL1        0.0449
      9 C          60.8590   96.0632   -2.8771 C.3     1  UNL1        0.0746
     10 N          59.3613   96.1289   -2.9285 N.3     1  UNL1       -0.2676
     11 C          58.5445   95.4734   -1.8548 C.3     1  UNL1        0.0746
     12 C          59.2254   94.7521   -0.7296 C.3     1  UNL1        0.0449
     13 C          64.4986   95.0630   -3.6897 C.ar    1  UNL1        0.2293
     14 C          63.4381   94.5162   -2.7806 C.ar    1  UNL1        0.0924
     15 C          63.2648   95.0847   -1.4034 C.ar    1  UNL1        0.1453
     16 N          64.1520   96.1999   -0.9352 N.ar    1  UNL1       -0.2084
     17 C          65.2124   96.7467   -1.8442 C.ar    1  UNL1        0.2027
     18 N          65.3858   96.1783   -3.2215 N.ar    1  UNL1       -0.1892
     19 C          64.8961   95.4106   -6.2334 C.3     1  UNL1        0.2542
     20 O          64.6719   94.4947   -5.0669 O.3     1  UNL1       -0.4560
     21 C          60.8681   92.6223    2.6058 C.ar    1  UNL1        0.0622
     22 C          59.5770   92.7740    3.3542 C.ar    1  UNL1        0.0154
     23 C          59.3424   91.9902    4.6115 C.ar    1  UNL1        0.0014
     24 C          60.3989   91.0548    5.1203 C.ar    1  UNL1        0.0022
     25 C          61.6900   90.9032    4.3719 C.ar    1  UNL1        0.0014
     26 C          61.9245   91.6869    3.1146 C.ar    1  UNL1        0.0154
     27 C          60.1642   90.2711    6.3776 C.ar    1  UNL1        0.0275
     28 C          59.0453   89.2742    6.4422 C.ar    1  UNL1        0.0023
     29 C          58.8107   88.4904    7.6995 C.ar    1  UNL1        0.0013
     30 C          59.6951   88.7037    8.8921 C.ar    1  UNL1        0.0162
     31 C          60.8140   89.7006    8.8275 C.ar    1  UNL1        0.0308
     32 C          61.0486   90.4843    7.5703 C.ar    1  UNL1        0.1401
     33 F          62.1675   91.4812    7.5058 F       1  UNL1       -0.2042
     34 C          59.4605   87.9199   10.1494 C.2     1  UNL1        0.0729
     35 O          59.6034   88.5857   11.4859 O.co2   1  UNL1       -0.5446
     36 O          59.0830   86.4703   10.0701 O.co2   1  UNL1       -0.5446
     37 C          58.6804   96.8503   -4.0538 C.3     1  UNL1        0.1183
     38 C          57.4629   96.2563   -4.6977 C.ar    1  UNL1        0.0712
     39 N          56.2519   95.9460   -3.8686 N.ar    1  UNL1       -0.2471
     40 C          55.0343   95.3519   -4.5125 C.ar    1  UNL1        0.0985
     41 C          55.0276   95.0682   -5.9854 C.ar    1  UNL1        0.0203
     42 C          56.2386   95.3785   -6.8145 C.ar    1  UNL1       -0.0015
     43 C          57.4562   95.9725   -6.1706 C.ar    1  UNL1       -0.0069
     44 C          58.6671   96.2828   -6.9996 C.3     1  UNL1        0.0323
@<TRIPOS>UNITY_ATOM_ATTR
35 1
charge -1
@<TRIPOS>BOND
     1    19    20    1
     2    20    13    1
     3    13    14   ar
     4    14    15   ar
     5    15     1    1
     6     1     2   am
     7     2     3    2
     8     2     4   am
     9     4    21    1
    10    21    22   ar
    11    22    23   ar
    12    23    24   ar
    13    24    27    1
    14    27    28   ar
    15    28    29   ar
    16    29    30   ar
    17    30    34    1
    18    34    35   ar
    19    34    36   ar
    20    30    31   ar
    21    31    32   ar
    22    32    33    1
    23    24    25   ar
    24    25    26   ar
    25     4     5   am
    26     5     6    2
    27     5     7    1
    28     7     8    1
    29     8     9    1
    30     9    10    1
    31    10    37    1
    32    37    38    1
    33    38    39   ar
    34    39    40   ar
    35    40    41   ar
    36    41    42   ar
    37    42    43   ar
    38    43    44    1
    39    10    11    1
    40    11    12    1
    41    15    16   ar
    42    16    17   ar
    43    17    18   ar
    44    18    13   ar
    45     7     1    1
    46    43    38   ar
    47    26    21   ar
    48    12     7    1
    49    32    27   ar
@<TRIPOS>MOLECULE
*****
 44 49 0 0 0
SMALL
GASTEIGER

@<TRIPOS>ATOM
      1 N          64.0701   89.5611   13.9240 N.am    1  UNL1       -0.2222
      2 C          63.9567   88.0767   14.1084 C.2     1  UNL1        0.3219
      3 O          64.0714   87.3385   15.4091 O.2     1  UNL1       -0.2512
      4 N          63.7085   87.4603   12.7636 N.am    1  UNL1       -0.1907
      5 C          63.6685   88.5636   11.7481 C.2     1  UNL1        0.2529
      6 O          63.4444   88.3977   10.2743 O.2     1  UNL1       -0.2724
      7 C          63.8920   89.8620   12.4653 C.3     1  UNL1        0.1391
      8 C          64.1262   91.0761   13.3145 C.3     1  UNL1        0.0449
      9 C          64.1647   92.4364   12.6838 C.3     1  UNL1        0.0746
     10 N          63.9691   92.5827   11.2038 N.3     1  UNL1       -0.2676
     11 C          63.7349   91.3687   10.3546 C.3     1  UNL1        0.0746
     12 C          63.6963   90.0083   10.9853 C.3     1  UNL1        0.0449
     13 C          65.8623   92.3279   16.1337 C.ar    1  UNL1        0.2293
     14 C          65.6143   91.3212   15.0496 C.ar    1  UNL1        0.0924
     15 C          64.3180   90.5678   15.0080 C.ar    1  UNL1        0.1453
     16 N          63.2695   90.8210   16.0505 N.ar    1  UNL1       -0.2084
     17 C          63.5174   91.8276   17.1345 C.ar    1  UNL1        0.2027
     18 N          64.8138   92.5811   17.1761 N.ar    1  UNL1       -0.1892
     19 C          68.4569   92.3502   16.0027 C.3     1  UNL1        0.2542
     20 O          67.1586   93.0814   16.1753 O.3     1  UNL1       -0.4560
     21 C          63.5315   85.9974   12.4834 C.ar    1  UNL1        0.0622
     22 C          62.5569   85.5469   11.4360 C.ar    1  UNL1        0.0154
     23 C          62.3798   84.0840   11.1558 C.ar    1  UNL1        0.0014
     24 C          63.1774   83.0715   11.9231 C.ar    1  UNL1        0.0022
     25 C          64.1521   83.5220   12.9706 C.ar    1  UNL1        0.0014
     26 C          64.3290   84.9849   13.2507 C.ar    1  UNL1        0.0154
     27 C          63.0003   81.6086   11.6430 C.ar    1  UNL1        0.0275
     28 C          63.2341   81.0760   10.2604 C.ar    1  UNL1        0.0023
     29 C          63.0570   79.6131    9.9802 C.ar    1  UNL1        0.0013
     30 C          62.6462   78.6828   11.0828 C.ar    1  UNL1        0.0162
     31 C          62.4124   79.2153   12.4655 C.ar    1  UNL1        0.0308
     32 C          62.5894   80.6781   12.7456 C.ar    1  UNL1        0.1401
     33 F          62.3556   81.2107   14.1282 F       1  UNL1       -0.2042
     34 C          62.4691   77.2198   10.8027 C.2     1  UNL1        0.0729
     35 O          63.6525   76.3805   10.4218 O.co2   1  UNL1       -0.5446
     36 O          61.1085   76.5962   10.9034 O.co2   1  UNL1       -0.5446
     37 C          64.0077   93.9432   10.5730 C.3     1  UNL1        0.1183
     38 C          65.2990   94.4838   10.0344 C.ar    1  UNL1        0.0712
     39 N          66.4710   93.5686    9.8370 N.ar    1  UNL1       -0.2471
     40 C          67.7624   94.1094    9.2983 C.ar    1  UNL1        0.0985
     41 C          67.8817   95.5651    8.9572 C.ar    1  UNL1        0.0203
     42 C          66.7098   96.4803    9.1547 C.ar    1  UNL1       -0.0015
     43 C          65.4184   95.9397    9.6933 C.ar    1  UNL1       -0.0069
     44 C          64.2465   96.8548    9.8908 C.3     1  UNL1        0.0323
@<TRIPOS>UNITY_ATOM_ATTR
35 1
charge -1
@<TRIPOS>BOND
     1    19    20    1
     2    20    13    1
     3    13    14   ar
     4    14    15   ar
     5    15     1    1
     6     1     2   am
     7     2     3    2
     8     2     4   am
     9     4    21    1
    10    21    22   ar
    11    22    23   ar
    12    23    24   ar
    13    24    27    1
    14    27    28   ar
    15    28    29   ar
    16    29    30   ar
    17    30    34    1
    18    34    35   ar
    19    34    36   ar
    20    30    31   ar
    21    31    32   ar
    22    32    33    1
    23    24    25   ar
    24    25    26   ar
    25     4     5   am
    26     5     6    2
    27     5     7    1
    28     7     8    1
    29     8     9    1
    30     9    10    1
    31    10    37    1
    32    37    38    1
    33    38    39   ar
    34    39    40   ar
    35    40    41   ar
    36    41    42   ar
    37    42    43   ar
    38    43    44    1
    39    10    11    1
    40    11    12    1
    41    15    16   ar
    42    16    17   ar
    43    17    18   ar
    44    18    13   ar
    45     7     1    1
    46    43    38   ar
    47    26    21   ar
    48    12     7    1
    49    32    27   ar
@<TRIPOS>MOLECULE
*****
 44 49 0 0 0
SMALL
GASTEIGER

@<TRIPOS>ATOM
      1 N          60.3128   88.8525   10.2707 N.am    1  UNL1       -0.2222
      2 C          59.9661   89.9257    9.2816 C.2     1  UNL1        0.3219
      3 O          59.4320   91.2883    9.6101 O.2     1  UNL1       -0.2512
      4 N          60.2473   89.3968    7.9063 N.am    1  UNL1       -0.1907
      5 C          60.7678   87.9969    8.0455 C.2     1  UNL1        0.2529
      6 O          61.1762   87.0923    6.9209 O.2     1  UNL1       -0.2724
      7 C          60.8083   87.6605    9.5068 C.3     1  UNL1        0.1391
      8 C          60.7928   87.4684   10.9943 C.3     1  UNL1        0.0449
      9 C          61.2487   86.1683   11.5874 C.3     1  UNL1        0.0746
     10 N          61.7202   85.0603   10.6930 N.3     1  UNL1       -0.2676
     11 C          61.7357   85.2524    9.2054 C.3     1  UNL1        0.0746
     12 C          61.2798   86.5525    8.6123 C.3     1  UNL1        0.0449
     13 C          61.2417   89.4665   14.0799 C.ar    1  UNL1        0.2293
     14 C          61.3682   89.3653   12.5887 C.ar    1  UNL1        0.0924
     15 C          60.1863   88.9537   11.7620 C.ar    1  UNL1        0.1453
     16 N          58.8778   88.6432   12.4264 N.ar    1  UNL1       -0.2084
     17 C          58.7512   88.7444   13.9175 C.ar    1  UNL1        0.2027
     18 N          59.9332   89.1560   14.7444 N.ar    1  UNL1       -0.1892
     19 C          63.5701   90.6036   14.2672 C.3     1  UNL1        0.2542
     20 O          62.4235   89.8781   14.9068 O.3     1  UNL1       -0.4560
     21 C          60.0438   90.1378    6.6182 C.ar    1  UNL1        0.0622
     22 C          58.6599   90.5184    6.1825 C.ar    1  UNL1        0.0154
     23 C          58.4563   91.2595    4.8943 C.ar    1  UNL1        0.0014
     24 C          59.6367   91.6198    4.0417 C.ar    1  UNL1        0.0022
     25 C          61.0207   91.2391    4.4774 C.ar    1  UNL1        0.0014
     26 C          61.2242   90.4981    5.7656 C.ar    1  UNL1        0.0154
     27 C          59.4332   92.3608    2.7535 C.ar    1  UNL1        0.0275
     28 C          58.1416   92.2208    2.0037 C.ar    1  UNL1        0.0023
     29 C          57.9380   92.9618    0.7155 C.ar    1  UNL1        0.0013
     30 C          59.0262   93.8428    0.1772 C.ar    1  UNL1        0.0162
     31 C          60.3177   93.9828    0.9269 C.ar    1  UNL1        0.0308
     32 C          60.5213   93.2419    2.2151 C.ar    1  UNL1        0.1401
     33 F          61.8129   93.3819    2.9648 F       1  UNL1       -0.2042
     34 C          58.8226   94.5838   -1.1111 C.2     1  UNL1        0.0729
     35 O          59.3680   94.0252   -2.3919 O.co2   1  UNL1       -0.5446
     36 O          58.0736   95.8835   -1.1185 O.co2   1  UNL1       -0.5446
     37 C          62.1761   83.7601   11.2862 C.3     1  UNL1        0.1183
     38 C          62.8882   83.7468   12.6062 C.ar    1  UNL1        0.0712
     39 N          63.7438   84.9113   13.0087 N.ar    1  UNL1       -0.2471
     40 C          64.4559   84.8980   14.3288 C.ar    1  UNL1        0.0985
     41 C          64.3125   83.7202   15.2465 C.ar    1  UNL1        0.0203
     42 C          63.4570   82.5557   14.8440 C.ar    1  UNL1       -0.0015
     43 C          62.7448   82.5690   13.5240 C.ar    1  UNL1       -0.0069
     44 C          61.8893   81.4044   13.1215 C.3     1  UNL1        0.0323
@<TRIPOS>UNITY_ATOM_ATTR
35 1
charge -1
@<TRIPOS>BOND
     1    19    20    1
     2    20    13    1
     3    13    14   ar
     4    14    15   ar
     5    15     1    1
     6     1     2   am
     7     2     3    2
     8     2     4   am
     9     4    21    1
    10    21    22   ar
    11    22    23   ar
    12    23    24   ar
    13    24    27    1
    14    27    28   ar
    15    28    29   ar
    16    29    30   ar
    17    30    34    1
    18    34    35   ar
    19    34    36   ar
    20    30    31   ar
    21    31    32   ar
    22    32    33    1
    23    24    25   ar
    24    25    26   ar
    25     4     5   am
    26     5     6    2
    27     5     7    1
    28     7     8    1
    29     8     9    1
    30     9    10    1
    31    10    37    1
    32    37    38    1
    33    38    39   ar
    34    39    40   ar
    35    40    41   ar
    36    41    42   ar
    37    42    43   ar
    38    43    44    1
    39    10    11    1
    40    11    12    1
    41    15    16   ar
    42    16    17   ar
    43    17    18   ar
    44    18    13   ar
    45     7     1    1
    46    43    38   ar
    47    26    21   ar
    48    12     7    1
    49    32    27   ar
@<TRIPOS>MOLECULE
*****
 44 49 0 0 0
SMALL
GASTEIGER

@<TRIPOS>ATOM
      1 N          60.1657   88.8583   10.0928 N.am    1  UNL1       -0.2222
      2 C          59.8399   89.9286    9.0935 C.2     1  UNL1        0.3219
      3 O          59.2125   91.2568    9.3970 O.2     1  UNL1       -0.2512
      4 N          60.2517   89.4372    7.7373 N.am    1  UNL1       -0.1907
      5 C          60.8319   88.0634    7.8984 C.2     1  UNL1        0.2529
      6 O          61.3707   87.1991    6.7973 O.2     1  UNL1       -0.2724
      7 C          60.7787   87.7056    9.3542 C.3     1  UNL1        0.1391
      8 C          60.6603   87.4886   10.8337 C.3     1  UNL1        0.0449
      9 C          61.1366   86.2037   11.4437 C.3     1  UNL1        0.0746
     10 N          61.7313   85.1358   10.5743 N.3     1  UNL1       -0.2676
     11 C          61.8498   85.3528    9.0949 C.3     1  UNL1        0.0746
     12 C          61.3735   86.6377    8.4848 C.3     1  UNL1        0.0449
     13 C          58.3487   88.5848   13.6104 C.ar    1  UNL1        0.2293
     14 C          58.5931   88.5146   12.1321 C.ar    1  UNL1        0.0924
     15 C          59.9212   88.9285   11.5711 C.ar    1  UNL1        0.1453
     16 N          61.0049   89.4125   12.4883 N.ar    1  UNL1       -0.2084
     17 C          60.7606   89.4827   13.9665 C.ar    1  UNL1        0.2027
     18 N          59.4324   89.0688   14.5276 N.ar    1  UNL1       -0.1892
     19 C          55.9027   87.7877   13.2477 C.3     1  UNL1        0.2542
     20 O          57.0206   88.1710   14.1715 O.3     1  UNL1       -0.4560
     21 C          60.1084   90.1879    6.4467 C.ar    1  UNL1        0.0622
     22 C          61.3249   90.5275    5.6375 C.ar    1  UNL1        0.0154
     23 C          61.1816   91.2782    4.3468 C.ar    1  UNL1        0.0014
     24 C          59.8218   91.6894    3.8653 C.ar    1  UNL1        0.0022
     25 C          58.6052   91.3498    4.6745 C.ar    1  UNL1        0.0014
     26 C          58.7486   90.5991    5.9651 C.ar    1  UNL1        0.0154
     27 C          59.6785   92.4401    2.5746 C.ar    1  UNL1        0.0275
     28 C          58.3861   92.3863    1.8151 C.ar    1  UNL1        0.0023
     29 C          58.2428   93.1370    0.5244 C.ar    1  UNL1        0.0013
     30 C          59.3920   93.9416   -0.0067 C.ar    1  UNL1        0.0162
     31 C          60.6844   93.9954    0.7527 C.ar    1  UNL1        0.0308
     32 C          60.8277   93.2447    2.0433 C.ar    1  UNL1        0.1401
     33 F          62.1201   93.2986    2.8028 F       1  UNL1       -0.2042
     34 C          59.2487   94.6923   -1.2975 C.2     1  UNL1        0.0729
     35 O          60.3692   94.6904   -2.2946 O.co2   1  UNL1       -0.5446
     36 O          57.9847   95.4450   -1.5910 O.co2   1  UNL1       -0.5446
     37 C          62.2076   83.8509   11.1845 C.3     1  UNL1        0.1183
     38 C          62.8603   83.8586   12.5350 C.ar    1  UNL1        0.0712
     39 N          63.6445   85.0565   12.9822 N.ar    1  UNL1       -0.2471
     40 C          64.2972   85.0641   14.3328 C.ar    1  UNL1        0.0985
     41 C          64.1657   83.8738   15.2361 C.ar    1  UNL1        0.0203
     42 C          63.3815   82.6759   14.7888 C.ar    1  UNL1       -0.0015
     43 C          62.7288   82.6682   13.4383 C.ar    1  UNL1       -0.0069
     44 C          61.9446   81.4703   12.9910 C.3     1  UNL1        0.0323
@<TRIPOS>UNITY_ATOM_ATTR
35 1
charge -1
@<TRIPOS>BOND
     1    19    20    1
     2    20    13    1
     3    13    14   ar
     4    14    15   ar
     5    15     1    1
     6     1     2   am
     7     2     3    2
     8     2     4   am
     9     4    21    1
    10    21    22   ar
    11    22    23   ar
    12    23    24   ar
    13    24    27    1
    14    27    28   ar
    15    28    29   ar
    16    29    30   ar
    17    30    34    1
    18    34    35   ar
    19    34    36   ar
    20    30    31   ar
    21    31    32   ar
    22    32    33    1
    23    24    25   ar
    24    25    26   ar
    25     4     5   am
    26     5     6    2
    27     5     7    1
    28     7     8    1
    29     8     9    1
    30     9    10    1
    31    10    37    1
    32    37    38    1
    33    38    39   ar
    34    39    40   ar
    35    40    41   ar
    36    41    42   ar
    37    42    43   ar
    38    43    44    1
    39    10    11    1
    40    11    12    1
    41    15    16   ar
    42    16    17   ar
    43    17    18   ar
    44    18    13   ar
    45     7     1    1
    46    43    38   ar
    47    26    21   ar
    48    12     7    1
    49    32    27   ar
