@<TRIPOS>MOLECULE
*****
 23 25 0 0 0
SMALL
GASTEIGER

@<TRIPOS>ATOM
      1 C          63.5542   88.2936   13.2742 C.ar    1  UNL1        0.0596
      2 N          64.0313   87.0803   14.0159 N.ar    1  UNL1       -0.2496
      3 C          63.7295   85.7100   13.4854 C.ar    1  UNL1        0.0809
      4 C          64.2066   84.4968   14.2272 C.ar    1  UNL1        0.0199
      5 C          63.9047   83.1266   13.6966 C.ar    1  UNL1        0.0129
      6 C          63.1258   82.9697   12.4244 C.ar    1  UNL1        0.0578
      7 CL         62.8241   81.5994   11.8938 Cl      1  UNL1       -0.0822
      8 C          62.6488   84.1830   11.6826 C.ar    1  UNL1        0.0129
      9 C          62.9506   85.5532   12.2131 C.ar    1  UNL1        0.0185
     10 C          62.4735   86.7666   11.4714 C.ar    1  UNL1        0.0037
     11 C          62.7753   88.1367   12.0019 C.ar    1  UNL1        0.0276
     12 C          61.6946   86.6097   10.1991 C.ar    1  UNL1        0.0001
     13 C          60.2745   87.0874   10.1253 C.ar    1  UNL1        0.0000
     14 C          59.4956   86.9305    8.8530 C.ar    1  UNL1        0.0000
     15 C          60.1368   86.2959    7.6545 C.ar    1  UNL1        0.0000
     16 C          61.5567   85.8183    7.7283 C.ar    1  UNL1        0.0000
     17 C          62.3356   85.9752    9.0006 C.ar    1  UNL1        0.0000
     18 C          63.4147   90.0472   15.1861 C.3     1  UNL1        0.0063
     19 C          63.8560   89.6639   13.8047 C.3     1  UNL1        0.0403
     20 C          64.5989   90.6507   12.9538 C.3     1  UNL1        0.0063
     21 C          62.2982   89.3501   11.2601 C.2     1  UNL1        0.0740
     22 O          61.0924   90.0994   11.7446 O.co2   1  UNL1       -0.5446
     23 O          63.0268   89.8142   10.0339 O.co2   1  UNL1       -0.5446
@<TRIPOS>UNITY_ATOM_ATTR
22 1
charge -1
@<TRIPOS>BOND
     1    18    19    1
     2    19    20    1
     3    19     1    1
     4     1     2   ar
     5     2     3   ar
     6     3     4   ar
     7     4     5   ar
     8     5     6   ar
     9     6     7    1
    10     6     8   ar
    11     8     9   ar
    12     9    10   ar
    13    10    12    1
    14    12    13   ar
    15    13    14   ar
    16    14    15   ar
    17    15    16   ar
    18    16    17   ar
    19    10    11   ar
    20    11    21    1
    21    21    22   ar
    22    21    23   ar
    23    11     1   ar
    24     9     3   ar
    25    17    12   ar
@<TRIPOS>MOLECULE
*****
 23 25 0 0 0
SMALL
GASTEIGER

@<TRIPOS>ATOM
      1 C          63.5330   88.4301   13.5902 C.ar    1  UNL1        0.0596
      2 N          62.8671   89.0688   12.4075 N.ar    1  UNL1       -0.2496
      3 C          62.3196   88.2142   11.3030 C.ar    1  UNL1        0.0809
      4 C          61.6537   88.8529   10.1204 C.ar    1  UNL1        0.0199
      5 C          61.1062   87.9984    9.0159 C.ar    1  UNL1        0.0129
      6 C          61.2245   86.5051    9.0941 C.ar    1  UNL1        0.0578
      7 CL         60.6770   85.6505    7.9896 Cl      1  UNL1       -0.0822
      8 C          61.8904   85.8664   10.2767 C.ar    1  UNL1        0.0129
      9 C          62.4379   86.7210   11.3812 C.ar    1  UNL1        0.0185
     10 C          63.1038   86.0823   12.5639 C.ar    1  UNL1        0.0037
     11 C          63.6513   86.9369   13.6684 C.ar    1  UNL1        0.0276
     12 C          63.2221   84.5890   12.6421 C.ar    1  UNL1        0.0001
     13 C          64.2363   83.8719   11.8011 C.ar    1  UNL1        0.0000
     14 C          64.3547   82.3787   11.8792 C.ar    1  UNL1        0.0000
     15 C          63.4588   81.6024   12.7985 C.ar    1  UNL1        0.0000
     16 C          62.4446   82.3195   13.6395 C.ar    1  UNL1        0.0000
     17 C          62.3263   83.8128   13.5613 C.ar    1  UNL1        0.0000
     18 C          63.3939   89.3181   16.0279 C.3     1  UNL1        0.0063
     19 C          64.0806   89.2847   14.6947 C.3     1  UNL1        0.0403
     20 C          65.3147   90.1059   14.4660 C.3     1  UNL1        0.0063
     21 C          64.3172   86.2982   14.8511 C.2     1  UNL1        0.0740
     22 O          63.5290   86.0224   16.0972 O.co2   1  UNL1       -0.5446
     23 O          65.7712   85.9353   14.7877 O.co2   1  UNL1       -0.5446
@<TRIPOS>UNITY_ATOM_ATTR
22 1
charge -1
@<TRIPOS>BOND
     1    18    19    1
     2    19    20    1
     3    19     1    1
     4     1     2   ar
     5     2     3   ar
     6     3     4   ar
     7     4     5   ar
     8     5     6   ar
     9     6     7    1
    10     6     8   ar
    11     8     9   ar
    12     9    10   ar
    13    10    12    1
    14    12    13   ar
    15    13    14   ar
    16    14    15   ar
    17    15    16   ar
    18    16    17   ar
    19    10    11   ar
    20    11    21    1
    21    21    22   ar
    22    21    23   ar
    23    11     1   ar
    24     9     3   ar
    25    17    12   ar
@<TRIPOS>MOLECULE
*****
 23 25 0 0 0
SMALL
GASTEIGER

@<TRIPOS>ATOM
      1 C          65.2432   92.2013   11.7479 C.ar    1  UNL1        0.0596
      2 N          64.3365   91.9746   10.5747 N.ar    1  UNL1       -0.2496
      3 C          63.2430   90.9512   10.6586 C.ar    1  UNL1        0.0809
      4 C          62.3363   90.7245    9.4854 C.ar    1  UNL1        0.0199
      5 C          61.2429   89.7010    9.5694 C.ar    1  UNL1        0.0129
      6 C          61.0563   88.9043   10.8265 C.ar    1  UNL1        0.0578
      7 CL         59.9628   87.8809   10.9104 Cl      1  UNL1       -0.0822
      8 C          61.9630   89.1310   11.9997 C.ar    1  UNL1        0.0129
      9 C          63.0564   90.1544   11.9158 C.ar    1  UNL1        0.0185
     10 C          63.9632   90.3812   13.0890 C.ar    1  UNL1        0.0037
     11 C          65.0565   91.4046   13.0050 C.ar    1  UNL1        0.0276
     12 C          63.7765   89.5845   14.3461 C.ar    1  UNL1        0.0001
     13 C          64.2358   88.1577   14.4050 C.ar    1  UNL1        0.0000
     14 C          64.0491   87.3610   15.6621 C.ar    1  UNL1        0.0000
     15 C          63.4032   87.9911   16.8604 C.ar    1  UNL1        0.0000
     16 C          62.9439   89.4178   16.8015 C.ar    1  UNL1        0.0000
     17 C          63.1306   90.2145   15.5444 C.ar    1  UNL1        0.0000
     18 C          66.1612   94.5648   12.3148 C.3     1  UNL1        0.0063
     19 C          66.3367   93.2248   11.6640 C.3     1  UNL1        0.0403
     20 C          67.6055   92.9082   10.9292 C.3     1  UNL1        0.0063
     21 C          65.9633   91.6314   14.1783 C.2     1  UNL1        0.0740
     22 O          67.2764   90.9110   14.2615 O.co2   1  UNL1       -0.5446
     23 O          65.5571   92.5785   15.2681 O.co2   1  UNL1       -0.5446
@<TRIPOS>UNITY_ATOM_ATTR
22 1
charge -1
@<TRIPOS>BOND
     1    18    19    1
     2    19    20    1
     3    19     1    1
     4     1     2   ar
     5     2     3   ar
     6     3     4   ar
     7     4     5   ar
     8     5     6   ar
     9     6     7    1
    10     6     8   ar
    11     8     9   ar
    12     9    10   ar
    13    10    12    1
    14    12    13   ar
    15    13    14   ar
    16    14    15   ar
    17    15    16   ar
    18    16    17   ar
    19    10    11   ar
    20    11    21    1
    21    21    22   ar
    22    21    23   ar
    23    11     1   ar
    24     9     3   ar
    25    17    12   ar
@<TRIPOS>MOLECULE
*****
 23 25 0 0 0
SMALL
GASTEIGER

@<TRIPOS>ATOM
      1 C          63.5639   85.4722   13.4433 C.ar    1  UNL1        0.0596
      2 N          63.7497   86.9025   13.8553 N.ar    1  UNL1       -0.2496
      3 C          63.4240   88.0080   12.8952 C.ar    1  UNL1        0.0809
      4 C          63.6098   89.4382   13.3072 C.ar    1  UNL1        0.0199
      5 C          63.2841   90.5436   12.3470 C.ar    1  UNL1        0.0129
      6 C          62.7727   90.2188   10.9748 C.ar    1  UNL1        0.0578
      7 CL         62.4471   91.3243   10.0146 Cl      1  UNL1       -0.0822
      8 C          62.5869   88.7885   10.5628 C.ar    1  UNL1        0.0129
      9 C          62.9126   87.6831   11.5230 C.ar    1  UNL1        0.0185
     10 C          62.7268   86.2528   11.1110 C.ar    1  UNL1        0.0037
     11 C          63.0525   85.1474   12.0711 C.ar    1  UNL1        0.0276
     12 C          62.2154   85.9279    9.7388 C.ar    1  UNL1        0.0001
     13 C          60.7925   86.2350    9.3765 C.ar    1  UNL1        0.0000
     14 C          60.2811   85.9102    8.0043 C.ar    1  UNL1        0.0000
     15 C          61.1926   85.2782    6.9944 C.ar    1  UNL1        0.0000
     16 C          62.6154   84.9711    7.3566 C.ar    1  UNL1        0.0000
     17 C          63.1268   85.2960    8.7288 C.ar    1  UNL1        0.0000
     18 C          65.2880   83.8300   14.4829 C.3     1  UNL1        0.0063
     19 C          63.8896   84.3667   14.4035 C.3     1  UNL1        0.0403
     20 C          62.8168   83.7980   15.2842 C.3     1  UNL1        0.0063
     21 C          62.8667   83.7170   11.6591 C.2     1  UNL1        0.0740
     22 O          61.6420   82.9655   12.0896 O.co2   1  UNL1       -0.5446
     23 O          63.9057   83.0382   10.8167 O.co2   1  UNL1       -0.5446
@<TRIPOS>UNITY_ATOM_ATTR
22 1
charge -1
@<TRIPOS>BOND
     1    18    19    1
     2    19    20    1
     3    19     1    1
     4     1     2   ar
     5     2     3   ar
     6     3     4   ar
     7     4     5   ar
     8     5     6   ar
     9     6     7    1
    10     6     8   ar
    11     8     9   ar
    12     9    10   ar
    13    10    12    1
    14    12    13   ar
    15    13    14   ar
    16    14    15   ar
    17    15    16   ar
    18    16    17   ar
    19    10    11   ar
    20    11    21    1
    21    21    22   ar
    22    21    23   ar
    23    11     1   ar
    24     9     3   ar
    25    17    12   ar
@<TRIPOS>MOLECULE
*****
 23 25 0 0 0
SMALL
GASTEIGER

@<TRIPOS>ATOM
      1 C          72.0458   71.3552   15.6727 C.ar    1  UNL1        0.0596
      2 N          72.0854   72.8124   16.0264 N.ar    1  UNL1       -0.2496
      3 C          71.9728   73.8492   14.9482 C.ar    1  UNL1        0.0809
      4 C          72.0125   75.3064   15.3019 C.ar    1  UNL1        0.0199
      5 C          71.8999   76.3431   14.2238 C.ar    1  UNL1        0.0129
      6 C          71.7477   75.9228   12.7920 C.ar    1  UNL1        0.0578
      7 CL         71.6351   76.9597   11.7139 Cl      1  UNL1       -0.0822
      8 C          71.7080   74.4657   12.4383 C.ar    1  UNL1        0.0129
      9 C          71.8206   73.4289   13.5164 C.ar    1  UNL1        0.0185
     10 C          71.7810   71.9717   13.1627 C.ar    1  UNL1        0.0037
     11 C          71.8935   70.9349   14.2408 C.ar    1  UNL1        0.0276
     12 C          71.6287   71.5513   11.7309 C.ar    1  UNL1        0.0001
     13 C          72.8363   71.4486   10.8469 C.ar    1  UNL1        0.0000
     14 C          72.6841   71.0282    9.4151 C.ar    1  UNL1        0.0000
     15 C          71.3243   70.7106    8.8672 C.ar    1  UNL1        0.0000
     16 C          70.1168   70.8134    9.7512 C.ar    1  UNL1        0.0000
     17 C          70.2690   71.2337   11.1830 C.ar    1  UNL1        0.0000
     18 C          70.9936   70.0489   17.6567 C.3     1  UNL1        0.0063
     19 C          72.1583   70.3184   16.7508 C.3     1  UNL1        0.0403
     20 C          73.4356   69.5511   16.9230 C.3     1  UNL1        0.0063
     21 C          71.8539   69.4777   13.8871 C.2     1  UNL1        0.0740
     22 O          70.5695   68.7119   14.0055 O.co2   1  UNL1       -0.5446
     23 O          73.0985   68.7863   13.4151 O.co2   1  UNL1       -0.5446
@<TRIPOS>UNITY_ATOM_ATTR
22 1
charge -1
@<TRIPOS>BOND
     1    18    19    1
     2    19    20    1
     3    19     1    1
     4     1     2   ar
     5     2     3   ar
     6     3     4   ar
     7     4     5   ar
     8     5     6   ar
     9     6     7    1
    10     6     8   ar
    11     8     9   ar
    12     9    10   ar
    13    10    12    1
    14    12    13   ar
    15    13    14   ar
    16    14    15   ar
    17    15    16   ar
    18    16    17   ar
    19    10    11   ar
    20    11    21    1
    21    21    22   ar
    22    21    23   ar
    23    11     1   ar
    24     9     3   ar
    25    17    12   ar
@<TRIPOS>MOLECULE
*****
 23 25 0 0 0
SMALL
GASTEIGER

@<TRIPOS>ATOM
      1 C          62.7483   93.8087   -1.6520 C.ar    1  UNL1        0.0596
      2 N          63.2093   93.3003   -0.3182 N.ar    1  UNL1       -0.2496
      3 C          62.2139   93.0614    0.7782 C.ar    1  UNL1        0.0809
      4 C          62.6749   92.5531    2.1120 C.ar    1  UNL1        0.0199
      5 C          61.6795   92.3141    3.2084 C.ar    1  UNL1        0.0129
      6 C          60.2231   92.5836    2.9709 C.ar    1  UNL1        0.0578
      7 CL         59.2277   92.3446    4.0674 Cl      1  UNL1       -0.0822
      8 C          59.7621   93.0919    1.6372 C.ar    1  UNL1        0.0129
      9 C          60.7575   93.3308    0.5408 C.ar    1  UNL1        0.0185
     10 C          60.2965   93.8392   -0.7931 C.ar    1  UNL1        0.0037
     11 C          61.2919   94.0781   -1.8894 C.ar    1  UNL1        0.0276
     12 C          58.8402   94.1087   -1.0305 C.ar    1  UNL1        0.0001
     13 C          57.9244   92.9876   -1.4239 C.ar    1  UNL1        0.0000
     14 C          56.4680   93.2570   -1.6613 C.ar    1  UNL1        0.0000
     15 C          55.9274   94.6475   -1.5053 C.ar    1  UNL1        0.0000
     16 C          56.8431   95.7685   -1.1120 C.ar    1  UNL1        0.0000
     17 C          58.2995   95.4991   -0.8745 C.ar    1  UNL1        0.0000
     18 C          64.4871   95.3487   -2.8161 C.3     1  UNL1        0.0063
     19 C          63.7437   94.0476   -2.7485 C.3     1  UNL1        0.0403
     20 C          63.9957   92.9855   -3.7773 C.3     1  UNL1        0.0063
     21 C          60.8310   94.5865   -3.2233 C.2     1  UNL1        0.0740
     22 O          60.9961   96.0362   -3.5713 O.co2   1  UNL1       -0.5446
     23 O          60.2049   93.6452   -4.2092 O.co2   1  UNL1       -0.5446
@<TRIPOS>UNITY_ATOM_ATTR
22 1
charge -1
@<TRIPOS>BOND
     1    18    19    1
     2    19    20    1
     3    19     1    1
     4     1     2   ar
     5     2     3   ar
     6     3     4   ar
     7     4     5   ar
     8     5     6   ar
     9     6     7    1
    10     6     8   ar
    11     8     9   ar
    12     9    10   ar
    13    10    12    1
    14    12    13   ar
    15    13    14   ar
    16    14    15   ar
    17    15    16   ar
    18    16    17   ar
    19    10    11   ar
    20    11    21    1
    21    21    22   ar
    22    21    23   ar
    23    11     1   ar
    24     9     3   ar
    25    17    12   ar
