@<TRIPOS>MOLECULE
*****
 26 29 0 0 0
SMALL
GASTEIGER

@<TRIPOS>ATOM
      1 C          63.3088   91.0549   11.1985 C.ar    1  UNL1        0.0814
      2 C          64.1945   91.9723   10.4086 C.ar    1  UNL1        0.0381
      3 C          65.3267   92.6873   11.0843 C.ar    1  UNL1        0.1034
      4 C          65.5732   92.4850   12.5501 C.ar    1  UNL1        0.1005
      5 N          64.6875   91.5677   13.3400 N.ar    1  UNL1       -0.2905
      6 C          64.6864   91.1738   14.7873 C.ar    1  UNL1        0.0567
      7 C          65.6492   91.6541   15.8324 C.3     1  UNL1        0.0517
      8 C          63.5535   90.2153   15.0061 C.ar    1  UNL1        0.0730
      9 C          63.1845   89.5689   16.3084 C.3     1  UNL1        0.0534
     10 N          62.8544   90.0168   13.6939 N.ar    1  UNL1       -0.2299
     11 C          63.5553   90.8526   12.6642 C.ar    1  UNL1        0.1604
     12 N          66.2125   93.6047   10.2944 N.ar    1  UNL1       -0.2064
     13 C          67.4631   93.2113    9.5657 C.ar    1  UNL1        0.2017
     14 N          68.0266   94.4400    8.9155 N.ar    1  UNL1       -0.2004
     15 C          67.1242   95.5928    9.2424 C.ar    1  UNL1        0.2214
     16 N          66.0030   95.0765   10.0946 N.ar    1  UNL1       -0.1408
     17 N          62.1765   90.3398   10.5227 N.pl3   1  UNL1       -0.3267
     18 H          61.3889   90.8445   10.2156 H       1  UNL1        0.1472
     19 C          62.2442   88.8559   10.3147 C.3     1  UNL1        0.1140
     20 C          62.3588   85.8836    9.9241 C.3     1  UNL1        0.0308
     21 C          61.3270   86.6961    9.1995 C.ar    1  UNL1       -0.0242
     22 C          60.3523   86.0224    8.2795 C.ar    1  UNL1       -0.0045
     23 C          59.3205   86.8348    7.5548 C.ar    1  UNL1       -0.0003
     24 C          59.2632   88.3210    7.7501 C.ar    1  UNL1       -0.0003
     25 C          60.2378   88.9946    8.6701 C.ar    1  UNL1       -0.0029
     26 C          61.2697   88.1822    9.3948 C.ar    1  UNL1       -0.0066
@<TRIPOS>BOND
     1    20    21    1
     2    21    22   ar
     3    22    23   ar
     4    23    24   ar
     5    24    25   ar
     6    25    26   ar
     7    26    19    1
     8    19    17    1
     9    17     1    1
    10     1     2   ar
    11     2     3   ar
    12     3    12    1
    13    12    13   ar
    14    13    14   ar
    15    14    15   ar
    16    15    16   ar
    17     3     4   ar
    18     4     5   ar
    19     5     6   ar
    20     6     7    1
    21     6     8   ar
    22     8     9    1
    23     8    10   ar
    24    10    11   ar
    25    26    21   ar
    26    11     1   ar
    27    16    12   ar
    28    11     5   ar
    29    17    18    1
@<TRIPOS>MOLECULE
*****
 26 29 0 0 0
SMALL
GASTEIGER

@<TRIPOS>ATOM
      1 C          63.3872   90.4558   11.6095 C.ar    1  UNL1        0.0814
      2 C          63.1520   89.5234   12.7606 C.ar    1  UNL1        0.0381
      3 C          63.8785   89.7331   14.0561 C.ar    1  UNL1        0.1034
      4 C          64.8402   90.8751   14.2003 C.ar    1  UNL1        0.1005
      5 N          65.0755   91.8075   13.0492 N.ar    1  UNL1       -0.2905
      6 C          65.9572   93.0113   12.8965 C.ar    1  UNL1        0.0567
      7 C          66.8617   93.5808   13.9489 C.3     1  UNL1        0.0517
      8 C          65.7757   93.5457   11.5067 C.ar    1  UNL1        0.0730
      9 C          66.4668   94.7434   10.9254 C.3     1  UNL1        0.0534
     10 N          64.7817   92.6722   10.8004 N.ar    1  UNL1       -0.2299
     11 C          64.3490   91.5979   11.7537 C.ar    1  UNL1        0.1604
     12 N          63.6433   88.8007   15.2074 N.ar    1  UNL1       -0.2064
     13 C          63.1347   89.1865   16.5647 C.ar    1  UNL1        0.2017
     14 N          63.0524   87.9430   17.3996 N.ar    1  UNL1       -0.2004
     15 C          63.5102   86.7886   16.5582 C.ar    1  UNL1        0.2214
     16 N          63.8753   87.3187   15.2033 N.ar    1  UNL1       -0.1408
     17 N          62.6607   90.2462   10.3139 N.pl3   1  UNL1       -0.3267
     18 H          63.1358   90.3598    9.4592 H       1  UNL1        0.1472
     19 C          61.2104   89.8636   10.3208 C.3     1  UNL1        0.1140
     20 C          61.9369   87.0205   10.9447 C.3     1  UNL1        0.0308
     21 C          61.0866   87.3322    9.7490 C.ar    1  UNL1       -0.0242
     22 C          60.5995   86.2224    8.8652 C.ar    1  UNL1       -0.0045
     23 C          59.7491   86.5341    7.6696 C.ar    1  UNL1       -0.0003
     24 C          59.3858   87.9556    7.3576 C.ar    1  UNL1       -0.0003
     25 C          59.8729   89.0654    8.2413 C.ar    1  UNL1       -0.0029
     26 C          60.7233   88.7538    9.4371 C.ar    1  UNL1       -0.0066
@<TRIPOS>BOND
     1    20    21    1
     2    21    22   ar
     3    22    23   ar
     4    23    24   ar
     5    24    25   ar
     6    25    26   ar
     7    26    19    1
     8    19    17    1
     9    17     1    1
    10     1     2   ar
    11     2     3   ar
    12     3    12    1
    13    12    13   ar
    14    13    14   ar
    15    14    15   ar
    16    15    16   ar
    17     3     4   ar
    18     4     5   ar
    19     5     6   ar
    20     6     7    1
    21     6     8   ar
    22     8     9    1
    23     8    10   ar
    24    10    11   ar
    25    26    21   ar
    26    11     1   ar
    27    16    12   ar
    28    11     5   ar
    29    17    18    1
@<TRIPOS>MOLECULE
*****
 26 29 0 0 0
SMALL
GASTEIGER

@<TRIPOS>ATOM
      1 C          63.8717   86.8849   13.9371 C.ar    1  UNL1        0.0814
      2 C          64.4222   88.0768   14.6625 C.ar    1  UNL1        0.0381
      3 C          64.2385   89.4522   14.0927 C.ar    1  UNL1        0.1034
      4 C          63.5044   89.6356   12.7976 C.ar    1  UNL1        0.1005
      5 N          62.9540   88.4437   12.0721 N.ar    1  UNL1       -0.2905
      6 C          62.1920   88.3148   10.7866 C.ar    1  UNL1        0.0567
      7 C          61.7882   89.4430    9.8842 C.3     1  UNL1        0.0517
      8 C          61.9046   86.8599   10.5618 C.ar    1  UNL1        0.0730
      9 C          61.1630   86.2776    9.3952 C.3     1  UNL1        0.0534
     10 N          62.4891   86.0894   11.7085 N.ar    1  UNL1       -0.2299
     11 C          63.1377   87.0683   12.6419 C.ar    1  UNL1        0.1604
     12 N          64.7890   90.6442   14.8182 N.ar    1  UNL1       -0.2064
     13 C          64.1430   91.3484   15.9743 C.ar    1  UNL1        0.2017
     14 N          65.0368   92.4807   16.3854 N.ar    1  UNL1       -0.2004
     15 C          66.2353   92.4763   15.4833 C.ar    1  UNL1        0.2214
     16 N          66.0821   91.3412   14.5147 N.ar    1  UNL1       -0.1408
     17 N          64.0553   85.5095   14.5069 N.pl3   1  UNL1       -0.3267
     18 H          63.8575   85.3394   15.4562 H       1  UNL1        0.1472
     19 C          64.5405   84.3932   13.6302 C.3     1  UNL1        0.1140
     20 C          64.5557   82.9684   10.9902 C.3     1  UNL1        0.0308
     21 C          63.6994   82.4599   12.1119 C.ar    1  UNL1       -0.0242
     22 C          62.8508   81.2390   11.9136 C.ar    1  UNL1       -0.0045
     23 C          61.9946   80.7306   13.0354 C.ar    1  UNL1       -0.0003
     24 C          61.9869   81.4430   14.3554 C.ar    1  UNL1       -0.0003
     25 C          62.8356   82.6638   14.5537 C.ar    1  UNL1       -0.0029
     26 C          63.6918   83.1723   13.4319 C.ar    1  UNL1       -0.0066
@<TRIPOS>BOND
     1    20    21    1
     2    21    22   ar
     3    22    23   ar
     4    23    24   ar
     5    24    25   ar
     6    25    26   ar
     7    26    19    1
     8    19    17    1
     9    17     1    1
    10     1     2   ar
    11     2     3   ar
    12     3    12    1
    13    12    13   ar
    14    13    14   ar
    15    14    15   ar
    16    15    16   ar
    17     3     4   ar
    18     4     5   ar
    19     5     6   ar
    20     6     7    1
    21     6     8   ar
    22     8     9    1
    23     8    10   ar
    24    10    11   ar
    25    26    21   ar
    26    11     1   ar
    27    16    12   ar
    28    11     5   ar
    29    17    18    1
@<TRIPOS>MOLECULE
*****
 26 29 0 0 0
SMALL
GASTEIGER

@<TRIPOS>ATOM
      1 C          62.9912   86.3477   12.6819 C.ar    1  UNL1        0.0814
      2 C          62.1757   86.0021   11.4714 C.ar    1  UNL1        0.0381
      3 C          61.7725   87.0776   10.5067 C.ar    1  UNL1        0.1034
      4 C          62.1849   88.4987   10.7525 C.ar    1  UNL1        0.1005
      5 N          63.0004   88.8443   11.9631 N.ar    1  UNL1       -0.2905
      6 C          63.5501   90.1467   12.4647 C.ar    1  UNL1        0.0567
      7 C          63.3857   91.4847   11.8070 C.3     1  UNL1        0.0517
      8 C          64.2929   89.8761   13.7394 C.ar    1  UNL1        0.0730
      9 C          65.0019   90.8962   14.5803 C.3     1  UNL1        0.0534
     10 N          64.2024   88.4065   14.0257 N.ar    1  UNL1       -0.2299
     11 C          63.4036   87.7688   12.9278 C.ar    1  UNL1        0.1604
     12 N          60.9570   86.7320    9.2961 N.ar    1  UNL1       -0.2064
     13 C          61.3594   85.7882    8.2019 C.ar    1  UNL1        0.2017
     14 N          60.2470   85.7425    7.1967 N.ar    1  UNL1       -0.2004
     15 C          59.1569   86.6581    7.6697 C.ar    1  UNL1        0.2214
     16 N          59.5958   87.2696    8.9671 N.ar    1  UNL1       -0.1408
     17 N          63.3944   85.2722   13.6467 N.pl3   1  UNL1       -0.3267
     18 H          63.0713   85.2984   14.5763 H       1  UNL1        0.1472
     19 C          64.2899   84.1567   13.1951 C.3     1  UNL1        0.1140
     20 C          64.2048   83.1776   10.3607 C.3     1  UNL1        0.0308
     21 C          63.6677   82.3191   11.4671 C.ar    1  UNL1       -0.0242
     22 C          63.0880   80.9709   11.1564 C.ar    1  UNL1       -0.0045
     23 C          62.5509   80.1123   12.2629 C.ar    1  UNL1       -0.0003
     24 C          62.5934   80.6019   13.6802 C.ar    1  UNL1       -0.0003
     25 C          63.1731   81.9500   13.9909 C.ar    1  UNL1       -0.0029
     26 C          63.7102   82.8086   12.8844 C.ar    1  UNL1       -0.0066
@<TRIPOS>BOND
     1    20    21    1
     2    21    22   ar
     3    22    23   ar
     4    23    24   ar
     5    24    25   ar
     6    25    26   ar
     7    26    19    1
     8    19    17    1
     9    17     1    1
    10     1     2   ar
    11     2     3   ar
    12     3    12    1
    13    12    13   ar
    14    13    14   ar
    15    14    15   ar
    16    15    16   ar
    17     3     4   ar
    18     4     5   ar
    19     5     6   ar
    20     6     7    1
    21     6     8   ar
    22     8     9    1
    23     8    10   ar
    24    10    11   ar
    25    26    21   ar
    26    11     1   ar
    27    16    12   ar
    28    11     5   ar
    29    17    18    1
@<TRIPOS>MOLECULE
*****
 26 29 0 0 0
SMALL
GASTEIGER

@<TRIPOS>ATOM
      1 C          62.0161   89.0165   11.2882 C.ar    1  UNL1        0.0814
      2 C          62.6530   87.9181   12.0868 C.ar    1  UNL1        0.0381
      3 C          62.5057   86.4908   11.6499 C.ar    1  UNL1        0.1034
      4 C          61.7214   86.1618   10.4144 C.ar    1  UNL1        0.1005
      5 N          61.0844   87.2601    9.6157 N.ar    1  UNL1       -0.2905
      6 C          60.2585   87.2415    8.3637 C.ar    1  UNL1        0.0567
      7 C          59.8648   86.0213    7.5853 C.3     1  UNL1        0.0517
      8 C          59.8954   88.6574    8.0268 C.ar    1  UNL1        0.0730
      9 C          59.0748   89.1016    6.8523 C.3     1  UNL1        0.0534
     10 N          60.4969   89.5511    9.0706 N.ar    1  UNL1       -0.2299
     11 C          61.2318   88.6875   10.0526 C.ar    1  UNL1        0.1604
     12 N          63.1426   85.3923   12.4486 N.ar    1  UNL1       -0.2064
     13 C          63.4053   83.9944   11.9725 C.ar    1  UNL1        0.2017
     14 N          64.0537   83.2372   13.0932 N.ar    1  UNL1       -0.2004
     15 C          64.1918   84.1671   14.2621 C.ar    1  UNL1        0.2214
     16 N          63.6286   85.4991   13.8637 N.ar    1  UNL1       -0.1408
     17 N          62.1634   90.4439   11.7250 N.pl3   1  UNL1       -0.3267
     18 H          61.4643   90.8648   12.2758 H       1  UNL1        0.1472
     19 C          63.3760   91.2300   11.3228 C.3     1  UNL1        0.1140
     20 C          65.5743   93.1678   10.6806 C.3     1  UNL1        0.0308
     21 C          65.5746   92.4412   11.9928 C.ar    1  UNL1       -0.0242
     22 C          66.6741   92.6835   12.9840 C.ar    1  UNL1       -0.0045
     23 C          66.6745   91.9570   14.2963 C.ar    1  UNL1       -0.0003
     24 C          65.5753   90.9881   14.6174 C.ar    1  UNL1       -0.0003
     25 C          64.4759   90.7457   13.6263 C.ar    1  UNL1       -0.0029
     26 C          64.4755   91.4723   12.3139 C.ar    1  UNL1       -0.0066
@<TRIPOS>BOND
     1    20    21    1
     2    21    22   ar
     3    22    23   ar
     4    23    24   ar
     5    24    25   ar
     6    25    26   ar
     7    26    19    1
     8    19    17    1
     9    17     1    1
    10     1     2   ar
    11     2     3   ar
    12     3    12    1
    13    12    13   ar
    14    13    14   ar
    15    14    15   ar
    16    15    16   ar
    17     3     4   ar
    18     4     5   ar
    19     5     6   ar
    20     6     7    1
    21     6     8   ar
    22     8     9    1
    23     8    10   ar
    24    10    11   ar
    25    26    21   ar
    26    11     1   ar
    27    16    12   ar
    28    11     5   ar
    29    17    18    1
@<TRIPOS>MOLECULE
*****
 26 29 0 0 0
SMALL
GASTEIGER

@<TRIPOS>ATOM
      1 C          62.9610   87.7501   12.3344 C.ar    1  UNL1        0.0814
      2 C          62.1135   88.0561   11.1352 C.ar    1  UNL1        0.0381
      3 C          61.4690   86.9399   10.3678 C.ar    1  UNL1        0.1034
      4 C          61.6720   85.5179   10.7997 C.ar    1  UNL1        0.1005
      5 N          62.5194   85.2119   11.9989 N.ar    1  UNL1       -0.2905
      6 C          62.8970   83.9182   12.6575 C.ar    1  UNL1        0.0567
      7 C          62.4715   82.5484   12.2187 C.3     1  UNL1        0.0517
      8 C          63.7749   84.2348   13.8319 C.ar    1  UNL1        0.0730
      9 C          64.3814   83.2371   14.7736 C.3     1  UNL1        0.0534
     10 N          63.9399   85.7241   13.8991 N.ar    1  UNL1       -0.2299
     11 C          63.1639   86.3280   12.7663 C.ar    1  UNL1        0.1604
     12 N          60.6215   87.2458    9.1685 N.ar    1  UNL1       -0.2064
     13 C          60.0265   86.2389    8.2294 C.ar    1  UNL1        0.2017
     14 N          59.2575   86.9832    7.1783 N.ar    1  UNL1       -0.2004
     15 C          59.3773   88.4501    7.4679 C.ar    1  UNL1        0.2214
     16 N          60.2203   88.6124    8.6979 N.ar    1  UNL1       -0.1408
     17 N          63.6055   88.8663   13.1018 N.pl3   1  UNL1       -0.3267
     18 H          64.2844   88.6654   13.7859 H       1  UNL1        0.1472
     19 C          63.2157   90.2884   12.8267 C.3     1  UNL1        0.1140
     20 C          63.2662   91.3989   10.0403 C.3     1  UNL1        0.0308
     21 C          64.2867   91.8461   11.0445 C.ar    1  UNL1       -0.0242
     22 C          65.3326   92.8487   10.6556 C.ar    1  UNL1       -0.0045
     23 C          66.3531   93.2959   11.6598 C.ar    1  UNL1       -0.0003
     24 C          66.3278   92.7406   13.0530 C.ar    1  UNL1       -0.0003
     25 C          65.2821   91.7381   13.4420 C.ar    1  UNL1       -0.0029
     26 C          64.2615   91.2909   12.4378 C.ar    1  UNL1       -0.0066
@<TRIPOS>BOND
     1    20    21    1
     2    21    22   ar
     3    22    23   ar
     4    23    24   ar
     5    24    25   ar
     6    25    26   ar
     7    26    19    1
     8    19    17    1
     9    17     1    1
    10     1     2   ar
    11     2     3   ar
    12     3    12    1
    13    12    13   ar
    14    13    14   ar
    15    14    15   ar
    16    15    16   ar
    17     3     4   ar
    18     4     5   ar
    19     5     6   ar
    20     6     7    1
    21     6     8   ar
    22     8     9    1
    23     8    10   ar
    24    10    11   ar
    25    26    21   ar
    26    11     1   ar
    27    16    12   ar
    28    11     5   ar
    29    17    18    1
@<TRIPOS>MOLECULE
*****
 26 29 0 0 0
SMALL
GASTEIGER

@<TRIPOS>ATOM
      1 C          62.0577   88.8358   11.3651 C.ar    1  UNL1        0.0814
      2 C          62.6699   87.6992   12.1289 C.ar    1  UNL1        0.0381
      3 C          62.4962   86.2903   11.6445 C.ar    1  UNL1        0.1034
      4 C          61.7103   86.0180   10.3962 C.ar    1  UNL1        0.1005
      5 N          61.0982   87.1545    9.6323 N.ar    1  UNL1       -0.2905
      6 C          60.2768   87.1937    8.3778 C.ar    1  UNL1        0.0567
      7 C          59.8622   86.0079    7.5581 C.3     1  UNL1        0.0517
      8 C          59.9429   88.6269    8.0869 C.ar    1  UNL1        0.0730
      9 C          59.1358   89.1259    6.9252 C.3     1  UNL1        0.0534
     10 N          60.5579   89.4734    9.1617 N.ar    1  UNL1       -0.2299
     11 C          61.2719   88.5634   10.1168 C.ar    1  UNL1        0.1604
     12 N          63.1083   85.1537   12.4083 N.ar    1  UNL1       -0.2064
     13 C          63.5774   83.8526   11.8277 C.ar    1  UNL1        0.2017
     14 N          64.1179   83.0134   12.9474 N.ar    1  UNL1       -0.2004
     15 C          63.9828   83.7959   14.2200 C.ar    1  UNL1        0.2214
     16 N          63.3588   85.1186   13.8868 N.ar    1  UNL1       -0.1408
     17 N          62.2314   90.2448   11.8496 N.pl3   1  UNL1       -0.3267
     18 H          61.6199   90.9510   11.5389 H       1  UNL1        0.1472
     19 C          63.3368   90.5776   12.8074 C.3     1  UNL1        0.1140
     20 C          65.5119   91.2980   14.7438 C.3     1  UNL1        0.0308
     21 C          65.5460   91.8352   13.3438 C.ar    1  UNL1       -0.0242
     22 C          66.6677   92.7326   12.9119 C.ar    1  UNL1       -0.0045
     23 C          66.7019   93.2698   11.5118 C.ar    1  UNL1       -0.0003
     24 C          65.6143   92.9097   10.5436 C.ar    1  UNL1       -0.0003
     25 C          64.4926   92.0123   10.9754 C.ar    1  UNL1       -0.0029
     26 C          64.4585   91.4750   12.3755 C.ar    1  UNL1       -0.0066
@<TRIPOS>BOND
     1    20    21    1
     2    21    22   ar
     3    22    23   ar
     4    23    24   ar
     5    24    25   ar
     6    25    26   ar
     7    26    19    1
     8    19    17    1
     9    17     1    1
    10     1     2   ar
    11     2     3   ar
    12     3    12    1
    13    12    13   ar
    14    13    14   ar
    15    14    15   ar
    16    15    16   ar
    17     3     4   ar
    18     4     5   ar
    19     5     6   ar
    20     6     7    1
    21     6     8   ar
    22     8     9    1
    23     8    10   ar
    24    10    11   ar
    25    26    21   ar
    26    11     1   ar
    27    16    12   ar
    28    11     5   ar
    29    17    18    1
@<TRIPOS>MOLECULE
*****
 26 29 0 0 0
SMALL
GASTEIGER

@<TRIPOS>ATOM
      1 C          62.2586   88.1569   11.6608 C.ar    1  UNL1        0.0814
      2 C          62.8047   86.9033   12.2773 C.ar    1  UNL1        0.0381
      3 C          62.5631   85.5772   11.6193 C.ar    1  UNL1        0.1034
      4 C          61.7754   85.5047   10.3449 C.ar    1  UNL1        0.1005
      5 N          61.2293   86.7583    9.7284 N.ar    1  UNL1       -0.2905
      6 C          60.4222   86.9971    8.4868 C.ar    1  UNL1        0.0567
      7 C          59.9544   85.9466    7.5237 C.3     1  UNL1        0.0517
      8 C          60.1650   88.4709    8.3774 C.ar    1  UNL1        0.0730
      9 C          59.3948   89.1528    7.2857 C.3     1  UNL1        0.0534
     10 N          60.8131   89.1429    9.5514 N.ar    1  UNL1       -0.2299
     11 C          61.4709   88.0844   10.3864 C.ar    1  UNL1        0.1604
     12 N          63.1093   84.3234   12.2358 N.ar    1  UNL1       -0.2064
     13 C          62.7800   83.7964   13.6010 C.ar    1  UNL1        0.2017
     14 N          63.5478   82.5239   13.8042 N.ar    1  UNL1       -0.2004
     15 C          64.3517   82.2645   12.5645 C.ar    1  UNL1        0.2214
     16 N          64.0806   83.3767   11.5953 N.ar    1  UNL1       -0.1408
     17 N          62.5002   89.4832   12.3188 N.pl3   1  UNL1       -0.3267
     18 H          61.9812   89.7393   13.1152 H       1  UNL1        0.1472
     19 C          63.5325   90.4190   11.7633 C.3     1  UNL1        0.1140
     20 C          65.1352   92.7415   10.7450 C.3     1  UNL1        0.0308
     21 C          65.2474   92.3252   12.1816 C.ar    1  UNL1       -0.0242
     22 C          66.1611   93.0702   13.1092 C.ar    1  UNL1       -0.0045
     23 C          66.2733   92.6539   14.5459 C.ar    1  UNL1       -0.0003
     24 C          65.4719   91.4926   15.0550 C.ar    1  UNL1       -0.0003
     25 C          64.5583   90.7477   14.1275 C.ar    1  UNL1       -0.0029
     26 C          64.4461   91.1640   12.6908 C.ar    1  UNL1       -0.0066
@<TRIPOS>BOND
     1    20    21    1
     2    21    22   ar
     3    22    23   ar
     4    23    24   ar
     5    24    25   ar
     6    25    26   ar
     7    26    19    1
     8    19    17    1
     9    17     1    1
    10     1     2   ar
    11     2     3   ar
    12     3    12    1
    13    12    13   ar
    14    13    14   ar
    15    14    15   ar
    16    15    16   ar
    17     3     4   ar
    18     4     5   ar
    19     5     6   ar
    20     6     7    1
    21     6     8   ar
    22     8     9    1
    23     8    10   ar
    24    10    11   ar
    25    26    21   ar
    26    11     1   ar
    27    16    12   ar
    28    11     5   ar
    29    17    18    1
@<TRIPOS>MOLECULE
*****
 26 29 0 0 0
SMALL
GASTEIGER

@<TRIPOS>ATOM
      1 C          63.1586   87.7150   12.5486 C.ar    1  UNL1        0.0814
      2 C          62.2997   88.1105   11.3843 C.ar    1  UNL1        0.0381
      3 C          61.5839   87.0592   10.5891 C.ar    1  UNL1        0.1034
      4 C          61.7271   85.6124   10.9582 C.ar    1  UNL1        0.1005
      5 N          62.5860   85.2169   12.1225 N.ar    1  UNL1       -0.2905
      6 C          62.9151   83.8804   12.7188 C.ar    1  UNL1        0.0567
      7 C          62.4132   82.5519   12.2360 C.3     1  UNL1        0.0517
      8 C          63.8343   84.1057   13.8825 C.ar    1  UNL1        0.0730
      9 C          64.4129   83.0420   14.7679 C.3     1  UNL1        0.0534
     10 N          64.0733   85.5814   14.0055 N.ar    1  UNL1       -0.2299
     11 C          63.3018   86.2681   12.9177 C.ar    1  UNL1        0.1604
     12 N          60.7249   87.4547    9.4247 N.ar    1  UNL1       -0.2064
     13 C          60.4197   88.8577    8.9905 C.ar    1  UNL1        0.2017
     14 N          59.5265   88.7867    7.7875 N.ar    1  UNL1       -0.2004
     15 C          59.2796   87.3398    7.4782 C.ar    1  UNL1        0.2214
     16 N          60.0203   86.5167    8.4900 N.ar    1  UNL1       -0.1408
     17 N          63.8745   88.7663   13.3439 N.pl3   1  UNL1       -0.3267
     18 H          64.5706   88.5061   13.9897 H       1  UNL1        0.1472
     19 C          63.5296   90.2139   13.1553 C.3     1  UNL1        0.1140
     20 C          64.4206   91.9229   10.8564 C.3     1  UNL1        0.0308
     21 C          65.0216   92.1222   12.2162 C.ar    1  UNL1       -0.0242
     22 C          66.0681   93.1761   12.4266 C.ar    1  UNL1       -0.0045
     23 C          66.6691   93.3754   13.7864 C.ar    1  UNL1       -0.0003
     24 C          66.2236   92.5209   14.9358 C.ar    1  UNL1       -0.0003
     25 C          65.1771   91.4670   14.7255 C.ar    1  UNL1       -0.0029
     26 C          64.5761   91.2677   13.3656 C.ar    1  UNL1       -0.0066
@<TRIPOS>BOND
     1    20    21    1
     2    21    22   ar
     3    22    23   ar
     4    23    24   ar
     5    24    25   ar
     6    25    26   ar
     7    26    19    1
     8    19    17    1
     9    17     1    1
    10     1     2   ar
    11     2     3   ar
    12     3    12    1
    13    12    13   ar
    14    13    14   ar
    15    14    15   ar
    16    15    16   ar
    17     3     4   ar
    18     4     5   ar
    19     5     6   ar
    20     6     7    1
    21     6     8   ar
    22     8     9    1
    23     8    10   ar
    24    10    11   ar
    25    26    21   ar
    26    11     1   ar
    27    16    12   ar
    28    11     5   ar
    29    17    18    1
