@<TRIPOS>MOLECULE
*****
 49 55 0 0 0
SMALL
GASTEIGER

@<TRIPOS>ATOM
      1 C          60.5018   88.1546    8.7307 C.3     1  UNL1        0.1543
      2 O          58.5898   89.5372    7.0513 O.2     1  UNL1       -0.2526
      3 C          59.3694   89.6131    6.9031 C.2     1  UNL1        0.3043
      4 N          60.6100   89.0625    7.5415 N.am    1  UNL1       -0.2822
      5 N          59.4776   90.5210    5.7139 N.am    1  UNL1       -0.2641
      6 C          58.2370   91.0716    5.0754 C.3     1  UNL1        0.0966
      7 C          58.3452   91.9795    3.8863 C.3     1  UNL1        0.0415
      8 C          59.6940   92.3367    3.3357 C.3     1  UNL1        0.0806
      9 C          60.9346   91.7861    3.9742 C.3     1  UNL1        0.0415
     10 C          60.8263   90.8782    5.1633 C.3     1  UNL1        0.0966
     11 H          61.4952   89.2969    7.1802 H       1  UNL1        0.1514
     12 N          59.8021   93.2447    2.1465 N.am    1  UNL1       -0.2613
     13 C          59.7406   92.6753    0.7601 C.3     1  UNL1        0.1228
     14 C          59.8487   93.5832   -0.4290 C.ar    1  UNL1        0.0112
     15 C          59.7871   93.0139   -1.8154 C.ar    1  UNL1       -0.0014
     16 C          59.8953   93.9218   -3.0045 C.ar    1  UNL1       -0.0002
     17 C          60.0650   95.3990   -2.8072 C.ar    1  UNL1        0.0013
     18 C          60.1266   95.9684   -1.4208 C.ar    1  UNL1        0.0144
     19 C          60.0184   95.0605   -0.2318 C.ar    1  UNL1        0.0492
     20 N          60.0800   95.6298    1.1547 N.am    1  UNL1       -0.2684
     21 C          59.9719   94.7219    2.3438 C.2     1  UNL1        0.3079
     22 O          60.0334   95.2912    3.7302 O.2     1  UNL1       -0.2522
     23 H          60.1914   96.5994    1.2842 H       1  UNL1        0.1564
     24 C          60.2870   88.7322   10.0982 C.2     1  UNL1        0.2439
     25 O          58.9723   88.5417   10.7949 O.2     1  UNL1       -0.2731
     26 N          61.3869   89.5004   10.7691 N.am    1  UNL1       -0.2781
     27 C          62.7015   89.6909   10.0725 C.3     1  UNL1        0.0948
     28 C          63.8015   90.4591   10.7434 C.3     1  UNL1        0.0375
     29 C          63.5867   91.0367   12.1109 C.3     1  UNL1        0.0609
     30 C          62.2720   90.8462   12.8076 C.3     1  UNL1        0.0375
     31 C          61.1721   90.0780   12.1367 C.3     1  UNL1        0.0948
     32 N          64.6866   91.8049   12.7819 N.3     1  UNL1       -0.2738
     33 C          65.3570   92.9376   12.0626 C.3     1  UNL1        0.0720
     34 C          66.4570   93.7058   12.7335 C.3     1  UNL1        0.0174
     35 C          66.8864   93.3413   14.1237 C.3     1  UNL1        0.0029
     36 C          66.2159   92.2085   14.8430 C.3     1  UNL1        0.0174
     37 C          65.1160   91.4403   14.1721 C.3     1  UNL1        0.0720
     38 C          60.6084   86.6690    8.5522 C.3     1  UNL1        0.0560
     39 C          61.5343   85.8735    9.4239 C.2     1  UNL1       -0.0100
     40 C          61.4039   85.9430   10.9166 C.2     1  UNL1        0.0350
     41 C          62.3298   85.1475   11.7882 C.2     1  UNL1        0.1614
     42 O          62.4402   85.0162   13.2784 O.3     1  UNL1       -0.4079
     43 C          63.5648   84.0700   13.5783 C.2     1  UNL1        0.4298
     44 O          64.0241   83.6508   14.9434 O.2     1  UNL1       -0.2238
     45 N          64.1494   83.6164   12.2734 N.am    1  UNL1       -0.1430
     46 C          63.3862   84.2824   11.1672 C.2     1  UNL1        0.0941
     47 C          63.5166   84.2128    9.6744 C.3     1  UNL1        0.0840
     48 C          62.5907   85.0083    8.8028 C.2     1  UNL1        0.0375
     49 CL         62.7211   84.9388    7.3101 Cl      1  UNL1       -0.0869
@<TRIPOS>BOND
     1     2     3    2
     2     3     4   am
     3     4     1    1
     4     1    38    1
     5    38    39    1
     6    39    40    1
     7    40    41    2
     8    41    42    1
     9    42    43    1
    10    43    44    2
    11    43    45    1
    12    45    46    2
    13    46    47    1
    14    47    48    1
    15    48    49    1
    16     1    24    1
    17    24    25    2
    18    24    26   am
    19    26    27    1
    20    27    28    1
    21    28    29    1
    22    29    32    1
    23    32    33    1
    24    33    34    1
    25    34    35    1
    26    35    36    1
    27    36    37    1
    28    29    30    1
    29    30    31    1
    30     3     5   am
    31     5     6    1
    32     6     7    1
    33     7     8    1
    34     8    12    1
    35    12    13    1
    36    13    14    1
    37    14    15   ar
    38    15    16   ar
    39    16    17   ar
    40    17    18   ar
    41    18    19   ar
    42    19    20    1
    43    20    21   am
    44    21    22    2
    45     8     9    1
    46     9    10    1
    47    48    39    2
    48    31    26    1
    49    10     5    1
    50    46    41    1
    51    37    32    1
    52    21    12   am
    53    19    14   ar
    54     4    11    1
    55    20    23    1
@<TRIPOS>MOLECULE
*****
 49 55 0 0 0
SMALL
GASTEIGER

@<TRIPOS>ATOM
      1 C          60.2092   89.0575    8.1219 C.3     1  UNL1        0.1543
      2 O          58.7015   90.5245    6.1313 O.2     1  UNL1       -0.2526
      3 C          59.4959   90.4891    6.0746 C.2     1  UNL1        0.3043
      4 N          60.5715   89.8420    6.8958 N.am    1  UNL1       -0.2822
      5 N          59.8581   91.2736    4.8484 N.am    1  UNL1       -0.2641
      6 C          58.7825   91.9206    4.0272 C.3     1  UNL1        0.0966
      7 C          59.1447   92.7051    2.8011 C.3     1  UNL1        0.0415
      8 C          60.5825   92.8426    2.3963 C.3     1  UNL1        0.0806
      9 C          61.6581   92.1956    3.2175 C.3     1  UNL1        0.0415
     10 C          61.2958   91.4111    4.4436 C.3     1  UNL1        0.0966
     11 H          61.5151   89.9323    6.6301 H       1  UNL1        0.1514
     12 N          60.9447   93.6272    1.1701 N.am    1  UNL1       -0.2613
     13 C          61.5687   92.9356   -0.0056 C.3     1  UNL1        0.1228
     14 C          61.9309   93.7202   -1.2317 C.ar    1  UNL1        0.0112
     15 C          62.5550   93.0286   -2.4074 C.ar    1  UNL1       -0.0014
     16 C          62.9171   93.8132   -3.6335 C.ar    1  UNL1       -0.0002
     17 C          62.6552   95.2893   -3.6838 C.ar    1  UNL1        0.0013
     18 C          62.0312   95.9808   -2.5082 C.ar    1  UNL1        0.0144
     19 C          61.6690   95.1963   -1.2821 C.ar    1  UNL1        0.0492
     20 N          61.0449   95.8878   -0.1063 N.am    1  UNL1       -0.2684
     21 C          60.6828   95.1033    1.1197 C.2     1  UNL1        0.3079
     22 O          60.0587   95.7948    2.2955 O.2     1  UNL1       -0.2522
     23 H          60.8730   96.8566   -0.1394 H       1  UNL1        0.1564
     24 C          60.2520   87.5584    8.0929 C.2     1  UNL1        0.2439
     25 O          59.5548   86.8093    6.9961 O.2     1  UNL1       -0.2731
     26 N          60.9918   86.8084    9.1606 N.am    1  UNL1       -0.2781
     27 C          61.6889   87.5575   10.2573 C.3     1  UNL1        0.0948
     28 C          62.4288   86.8075   11.3251 C.3     1  UNL1        0.0375
     29 C          62.4715   85.3084   11.2961 C.3     1  UNL1        0.0609
     30 C          61.7744   84.5593   10.1993 C.3     1  UNL1        0.0375
     31 C          61.0345   85.3093    9.1316 C.3     1  UNL1        0.0948
     32 N          63.2114   84.5583   12.3638 N.3     1  UNL1       -0.2738
     33 C          63.3717   83.0705   12.2611 C.3     1  UNL1        0.0720
     34 C          64.1116   82.3204   13.3289 C.3     1  UNL1        0.0174
     35 C          64.6911   83.0582   14.4993 C.3     1  UNL1        0.0029
     36 C          64.5307   84.5461   14.6019 C.3     1  UNL1        0.0174
     37 C          63.7908   85.2961   13.5342 C.3     1  UNL1        0.0720
     38 C          59.8043   89.7721    9.3771 C.3     1  UNL1        0.0560
     39 C          60.8435   90.1658   10.3845 C.2     1  UNL1       -0.0100
     40 C          62.1251   90.8000    9.9314 C.2     1  UNL1        0.0350
     41 C          63.1643   91.1937   10.9388 C.2     1  UNL1        0.1614
     42 O          64.5136   91.8324   10.7918 O.3     1  UNL1       -0.4079
     43 C          65.1051   91.9866   12.1616 C.2     1  UNL1        0.4298
     44 O          66.4451   92.5801   12.4816 O.2     1  UNL1       -0.2238
     45 N          64.1215   91.4433   13.1552 N.am    1  UNL1       -0.1430
     46 C          62.9220   90.9532   12.3994 C.2     1  UNL1        0.0941
     47 C          61.6404   90.3190   12.8527 C.3     1  UNL1        0.0840
     48 C          60.6012   89.9253   11.8452 C.2     1  UNL1        0.0375
     49 CL         59.3196   89.2912   12.2984 Cl      1  UNL1       -0.0869
@<TRIPOS>BOND
     1     2     3    2
     2     3     4   am
     3     4     1    1
     4     1    38    1
     5    38    39    1
     6    39    40    1
     7    40    41    2
     8    41    42    1
     9    42    43    1
    10    43    44    2
    11    43    45    1
    12    45    46    2
    13    46    47    1
    14    47    48    1
    15    48    49    1
    16     1    24    1
    17    24    25    2
    18    24    26   am
    19    26    27    1
    20    27    28    1
    21    28    29    1
    22    29    32    1
    23    32    33    1
    24    33    34    1
    25    34    35    1
    26    35    36    1
    27    36    37    1
    28    29    30    1
    29    30    31    1
    30     3     5   am
    31     5     6    1
    32     6     7    1
    33     7     8    1
    34     8    12    1
    35    12    13    1
    36    13    14    1
    37    14    15   ar
    38    15    16   ar
    39    16    17   ar
    40    17    18   ar
    41    18    19   ar
    42    19    20    1
    43    20    21   am
    44    21    22    2
    45     8     9    1
    46     9    10    1
    47    48    39    2
    48    31    26    1
    49    10     5    1
    50    46    41    1
    51    37    32    1
    52    21    12   am
    53    19    14   ar
    54     4    11    1
    55    20    23    1
@<TRIPOS>MOLECULE
*****
 49 55 0 0 0
SMALL
GASTEIGER

@<TRIPOS>ATOM
      1 C          59.7192   88.6463    7.5734 C.3     1  UNL1        0.1543
      2 O          60.2574   89.1608   10.3722 O.2     1  UNL1       -0.2526
      3 C          60.7737   89.4142    9.8202 C.2     1  UNL1        0.3043
      4 N          60.8230   89.3312    8.3233 N.am    1  UNL1       -0.2822
      5 N          61.8776   90.0992   10.5702 N.am    1  UNL1       -0.2641
      6 C          61.8283   90.1822   12.0670 C.3     1  UNL1        0.0966
      7 C          62.9321   90.8672   12.8169 C.3     1  UNL1        0.0415
      8 C          64.0852   91.4691   12.0699 C.3     1  UNL1        0.0806
      9 C          64.1345   91.3861   10.5731 C.3     1  UNL1        0.0415
     10 C          63.0307   90.7012    9.8232 C.3     1  UNL1        0.0966
     11 H          61.5799   89.7263    7.8331 H       1  UNL1        0.1514
     12 N          65.1891   92.1541   12.8199 N.am    1  UNL1       -0.2613
     13 C          65.7835   91.5074   14.0358 C.3     1  UNL1        0.1228
     14 C          66.8874   92.1924   14.7857 C.ar    1  UNL1        0.0112
     15 C          67.4818   91.5457   16.0016 C.ar    1  UNL1       -0.0014
     16 C          68.5856   92.2307   16.7515 C.ar    1  UNL1       -0.0002
     17 C          69.0949   93.5624   16.2855 C.ar    1  UNL1        0.0013
     18 C          68.5005   94.2091   15.0697 C.ar    1  UNL1        0.0144
     19 C          67.3967   93.5241   14.3198 C.ar    1  UNL1        0.0492
     20 N          66.8023   94.1708   13.1038 N.am    1  UNL1       -0.2684
     21 C          65.6985   93.4858   12.3539 C.2     1  UNL1        0.3079
     22 O          65.1040   94.1325   11.1380 O.2     1  UNL1       -0.2522
     23 H          67.1366   95.0448   12.7980 H       1  UNL1        0.1564
     24 C          58.7691   89.4509    6.7368 C.2     1  UNL1        0.2439
     25 O          57.2894   89.3154    6.9424 O.2     1  UNL1       -0.2731
     26 N          59.2986   90.3908    5.6948 N.am    1  UNL1       -0.2781
     27 C          60.7783   90.5262    5.4893 C.3     1  UNL1        0.0948
     28 C          61.3079   91.4662    4.4471 C.3     1  UNL1        0.0375
     29 C          60.3578   92.2708    3.6105 C.3     1  UNL1        0.0609
     30 C          58.8780   92.1354    3.8161 C.3     1  UNL1        0.0375
     31 C          58.3485   91.1954    4.8582 C.3     1  UNL1        0.0948
     32 N          60.8873   93.2108    2.5684 N.3     1  UNL1       -0.2738
     33 C          62.1677   92.8943    1.8541 C.3     1  UNL1        0.0720
     34 C          62.6973   93.8343    0.8119 C.3     1  UNL1        0.0174
     35 C          61.9464   95.0907    0.4842 C.3     1  UNL1        0.0029
     36 C          60.6659   95.4072    1.1986 C.3     1  UNL1        0.0174
     37 C          60.1364   94.4673    2.2407 C.3     1  UNL1        0.0720
     38 C          59.5655   87.1566    7.6601 C.3     1  UNL1        0.0560
     39 C          60.5830   86.3394    8.3996 C.2     1  UNL1       -0.0100
     40 C          60.6761   86.4307    9.8938 C.2     1  UNL1        0.0350
     41 C          61.6937   85.6135   10.6333 C.2     1  UNL1        0.1614
     42 O          62.0178   85.4957   12.0931 O.3     1  UNL1       -0.4079
     43 C          63.1426   84.5143   12.2404 C.2     1  UNL1        0.4298
     44 O          63.7839   84.0952   13.5301 O.2     1  UNL1       -0.2238
     45 N          63.5137   84.0257   10.8716 N.am    1  UNL1       -0.1430
     46 C          62.6182   84.7050    9.8784 C.2     1  UNL1        0.0941
     47 C          62.5251   84.6137    8.3840 C.3     1  UNL1        0.0840
     48 C          61.5076   85.4309    7.6446 C.2     1  UNL1        0.0375
     49 CL         61.4145   85.3396    6.1503 Cl      1  UNL1       -0.0869
@<TRIPOS>BOND
     1     2     3    2
     2     3     4   am
     3     4     1    1
     4     1    38    1
     5    38    39    1
     6    39    40    1
     7    40    41    2
     8    41    42    1
     9    42    43    1
    10    43    44    2
    11    43    45    1
    12    45    46    2
    13    46    47    1
    14    47    48    1
    15    48    49    1
    16     1    24    1
    17    24    25    2
    18    24    26   am
    19    26    27    1
    20    27    28    1
    21    28    29    1
    22    29    32    1
    23    32    33    1
    24    33    34    1
    25    34    35    1
    26    35    36    1
    27    36    37    1
    28    29    30    1
    29    30    31    1
    30     3     5   am
    31     5     6    1
    32     6     7    1
    33     7     8    1
    34     8    12    1
    35    12    13    1
    36    13    14    1
    37    14    15   ar
    38    15    16   ar
    39    16    17   ar
    40    17    18   ar
    41    18    19   ar
    42    19    20    1
    43    20    21   am
    44    21    22    2
    45     8     9    1
    46     9    10    1
    47    48    39    2
    48    31    26    1
    49    10     5    1
    50    46    41    1
    51    37    32    1
    52    21    12   am
    53    19    14   ar
    54     4    11    1
    55    20    23    1
