@<TRIPOS>MOLECULE
*****
 28 31 0 0 0
SMALL
GASTEIGER

@<TRIPOS>ATOM
      1 C          64.3272   91.2456   13.9392 C.ar    1  UNL1        0.0991
      2 S          65.4124   92.1820   13.4970 S.2     1  UNL1       -0.0473
      3 C          65.3574   92.2820   12.0013 C.ar    1  UNL1        0.1630
      4 N          64.2382   91.4074   11.5192 N.ar    1  UNL1       -0.2278
      5 C          63.6016   90.7668   12.7168 C.ar    1  UNL1        0.0805
      6 N          66.2626   93.1111   11.1392 N.pl3   1  UNL1       -0.2830
      7 C          66.0996   94.6015   11.0966 C.3     1  UNL1        0.1247
      8 C          67.0048   95.4306   10.2345 C.3     1  UNL1        0.1636
      9 O          68.0731   94.7691    9.4150 O.3     1  UNL1       -0.3501
     10 C          68.2360   93.2786    9.4577 C.3     1  UNL1        0.1636
     11 C          67.3307   92.4496   10.3198 C.3     1  UNL1        0.1247
     12 N          63.8973   89.4078   15.7246 N.am    1  UNL1       -0.3249
     13 C          64.0215   90.8562   15.3552 C.2     1  UNL1        0.2500
     14 O          63.8399   91.9154   16.4017 O.2     1  UNL1       -0.2698
     15 H          63.6966   89.1522   16.6539 H       1  UNL1        0.1453
     16 H          64.0164   88.7126   15.0377 H       1  UNL1        0.1453
     17 C          62.4427   89.8147   12.6958 C.3     1  UNL1        0.1319
     18 C          61.6214   89.6603   11.4502 C.2     1  UNL1        0.2354
     19 O          60.8931   90.8416   10.8808 O.2     1  UNL1       -0.2741
     20 N          61.5283   88.3246   10.7739 N.am    1  UNL1       -0.2583
     21 C          62.1974   87.0599   11.2242 C.3     1  UNL1        0.1029
     22 C          61.8324   85.9729   10.2572 C.3     1  UNL1        0.0495
     23 C          60.9378   86.5656    9.2093 C.ar    1  UNL1       -0.0068
     24 C          60.2700   85.9698    8.0056 C.ar    1  UNL1       -0.0030
     25 C          59.4142   86.8274    7.1212 C.ar    1  UNL1       -0.0002
     26 C          59.2262   88.2809    7.4405 C.ar    1  UNL1        0.0013
     27 C          59.8941   88.8769    8.6443 C.ar    1  UNL1        0.0146
     28 C          60.7498   88.0192    9.5287 C.ar    1  UNL1        0.0499
@<TRIPOS>BOND
     1    12    13   am
     2    13    14    2
     3    13     1    1
     4     1     2   ar
     5     2     3   ar
     6     3     6    1
     7     6     7    1
     8     7     8    1
     9     8     9    1
    10     9    10    1
    11    10    11    1
    12     3     4   ar
    13     4     5   ar
    14     5    17    1
    15    17    18    1
    16    18    19    2
    17    18    20   am
    18    20    21    1
    19    21    22    1
    20    22    23    1
    21    23    24   ar
    22    24    25   ar
    23    25    26   ar
    24    26    27   ar
    25    27    28   ar
    26     5     1   ar
    27    28    20    1
    28    11     6    1
    29    28    23   ar
    30    12    15    1
    31    12    16    1
@<TRIPOS>MOLECULE
*****
 28 31 0 0 0
SMALL
GASTEIGER

@<TRIPOS>ATOM
      1 C          65.4422   92.2966   14.3200 C.ar    1  UNL1        0.0991
      2 S          66.3605   93.0924   13.4406 S.2     1  UNL1       -0.0473
      3 C          66.0772   92.7188   12.0158 C.ar    1  UNL1        0.1630
      4 N          64.9837   91.6920   12.0145 N.ar    1  UNL1       -0.2278
      5 C          64.5913   91.4311   13.4386 C.ar    1  UNL1        0.0805
      6 N          66.7664   93.2743   10.8049 N.pl3   1  UNL1       -0.2830
      7 C          67.6991   92.4095   10.0099 C.3     1  UNL1        0.1247
      8 C          68.3883   92.9651    8.7990 C.3     1  UNL1        0.1636
      9 O          68.1447   94.3856    8.3830 O.3     1  UNL1       -0.3501
     10 C          67.2119   95.2504    9.1780 C.3     1  UNL1        0.1636
     11 C          66.5228   94.6948   10.3889 C.3     1  UNL1        0.1247
     12 N          66.5871   92.7990   16.5974 N.am    1  UNL1       -0.3249
     13 C          65.3848   92.3559   15.8177 C.2     1  UNL1        0.2500
     14 O          64.1249   91.9721   16.5358 O.2     1  UNL1       -0.2698
     15 H          66.5495   92.8380   17.5804 H       1  UNL1        0.1453
     16 H          67.4140   93.0510   16.1261 H       1  UNL1        0.1453
     17 C          63.5335   90.4729   13.9002 C.3     1  UNL1        0.1319
     18 C          63.2399   89.2379   13.1011 C.2     1  UNL1        0.2354
     19 O          63.8595   87.9283   13.4895 O.2     1  UNL1       -0.2741
     20 N          62.3267   89.3127   11.9134 N.am    1  UNL1       -0.2583
     21 C          61.6377   90.5450   11.4072 C.3     1  UNL1        0.1029
     22 C          60.8273   90.1621   10.2044 C.3     1  UNL1        0.0495
     23 C          61.0155   88.6930    9.9673 C.ar    1  UNL1       -0.0068
     24 C          60.4628   87.7654    8.9261 C.ar    1  UNL1       -0.0030
     25 C          60.8368   86.3129    8.9411 C.ar    1  UNL1       -0.0002
     26 C          61.7634   85.7878    9.9973 C.ar    1  UNL1        0.0013
     27 C          62.3162   86.7154   11.0386 C.ar    1  UNL1        0.0146
     28 C          61.9422   88.1680   11.0236 C.ar    1  UNL1        0.0499
@<TRIPOS>BOND
     1    12    13   am
     2    13    14    2
     3    13     1    1
     4     1     2   ar
     5     2     3   ar
     6     3     6    1
     7     6     7    1
     8     7     8    1
     9     8     9    1
    10     9    10    1
    11    10    11    1
    12     3     4   ar
    13     4     5   ar
    14     5    17    1
    15    17    18    1
    16    18    19    2
    17    18    20   am
    18    20    21    1
    19    21    22    1
    20    22    23    1
    21    23    24   ar
    22    24    25   ar
    23    25    26   ar
    24    26    27   ar
    25    27    28   ar
    26     5     1   ar
    27    28    20    1
    28    11     6    1
    29    28    23   ar
    30    12    15    1
    31    12    16    1
@<TRIPOS>MOLECULE
*****
 28 31 0 0 0
SMALL
GASTEIGER

@<TRIPOS>ATOM
      1 C          60.8254   87.5015    9.7409 C.ar    1  UNL1        0.0991
      2 S          61.2621   86.0675    9.7944 S.2     1  UNL1       -0.0473
      3 C          62.2016   85.9119   10.9534 C.ar    1  UNL1        0.1630
      4 N          62.3455   87.2498   11.6162 N.ar    1  UNL1       -0.2278
      5 C          61.4950   88.2322   10.8668 C.ar    1  UNL1        0.0805
      6 N          62.8783   84.6415   11.3754 N.pl3   1  UNL1       -0.2830
      7 C          62.8647   84.2277   12.8171 C.3     1  UNL1        0.1247
      8 C          63.5414   82.9573   13.2391 C.3     1  UNL1        0.1636
      9 O          64.2318   82.1006   12.2193 O.3     1  UNL1       -0.3501
     10 C          64.2453   82.5146   10.7776 C.3     1  UNL1        0.1636
     11 C          63.5686   83.7849   10.3557 C.3     1  UNL1        0.1247
     12 N          60.1124   89.4940    8.2338 N.am    1  UNL1       -0.3249
     13 C          59.8843   88.0997    8.7377 C.2     1  UNL1        0.2500
     14 O          58.7151   87.3036    8.2383 O.2     1  UNL1       -0.2698
     15 H          59.4948   89.8866    7.5753 H       1  UNL1        0.1453
     16 H          60.8798   90.0165    8.5615 H       1  UNL1        0.1453
     17 C          61.3410   89.6895   11.1872 C.3     1  UNL1        0.1319
     18 C          62.5509   90.5731   11.2607 C.2     1  UNL1        0.2354
     19 O          62.9815   91.3570   10.0566 O.2     1  UNL1       -0.2741
     20 N          63.3302   90.6728   12.5386 N.am    1  UNL1       -0.2583
     21 C          63.0221   89.9525   13.8177 C.3     1  UNL1        0.1029
     22 C          64.0560   90.3449   14.8312 C.3     1  UNL1        0.0495
     23 C          65.0031   91.3076   14.1785 C.ar    1  UNL1       -0.0068
     24 C          66.2160   92.0259   14.6912 C.ar    1  UNL1       -0.0030
     25 C          66.9804   92.9469   13.7870 C.ar    1  UNL1       -0.0002
     26 C          66.5319   93.1495   12.3701 C.ar    1  UNL1        0.0013
     27 C          65.3189   92.4312   11.8573 C.ar    1  UNL1        0.0146
     28 C          64.5545   91.5102   12.7615 C.ar    1  UNL1        0.0499
@<TRIPOS>BOND
     1    12    13   am
     2    13    14    2
     3    13     1    1
     4     1     2   ar
     5     2     3   ar
     6     3     6    1
     7     6     7    1
     8     7     8    1
     9     8     9    1
    10     9    10    1
    11    10    11    1
    12     3     4   ar
    13     4     5   ar
    14     5    17    1
    15    17    18    1
    16    18    19    2
    17    18    20   am
    18    20    21    1
    19    21    22    1
    20    22    23    1
    21    23    24   ar
    22    24    25   ar
    23    25    26   ar
    24    26    27   ar
    25    27    28   ar
    26     5     1   ar
    27    28    20    1
    28    11     6    1
    29    28    23   ar
    30    12    15    1
    31    12    16    1
@<TRIPOS>MOLECULE
*****
 28 31 0 0 0
SMALL
GASTEIGER

@<TRIPOS>ATOM
      1 C          61.0871   87.5326   10.0668 C.ar    1  UNL1        0.0991
      2 S          61.4086   86.0675   10.0741 S.2     1  UNL1       -0.0473
      3 C          62.3356   85.8020   11.2231 C.ar    1  UNL1        0.1630
      4 N          62.5868   87.1031   11.9261 N.ar    1  UNL1       -0.2278
      5 C          61.8152   88.1726   11.2114 C.ar    1  UNL1        0.0805
      6 N          62.9103   84.4695   11.6027 N.pl3   1  UNL1       -0.2830
      7 C          63.5805   83.6188   10.5649 C.3     1  UNL1        0.1247
      8 C          64.1552   82.2862   10.9445 C.3     1  UNL1        0.1636
      9 O          64.0596   81.8044   12.3618 O.3     1  UNL1       -0.3501
     10 C          63.3894   82.6552   13.3995 C.3     1  UNL1        0.1636
     11 C          62.8147   83.9877   13.0200 C.3     1  UNL1        0.1247
     12 N          60.3991   89.6914    8.7956 N.am    1  UNL1       -0.3249
     13 C          60.1941   88.2344    9.0869 C.2     1  UNL1        0.2500
     14 O          59.0961   87.4791    8.3984 O.2     1  UNL1       -0.2698
     15 H          59.8130   90.1521    8.1525 H       1  UNL1        0.1453
     16 H          61.1197   90.1872    9.2475 H       1  UNL1        0.1453
     17 C          61.7783   89.6269   11.5771 C.3     1  UNL1        0.1319
     18 C          62.6662   90.1488   12.6676 C.2     1  UNL1        0.2354
     19 O          62.4368   89.7260   14.0884 O.2     1  UNL1       -0.2741
     20 N          63.7835   91.0935   12.3373 N.am    1  UNL1       -0.2583
     21 C          64.1327   91.6025   10.9703 C.3     1  UNL1        0.1029
     22 C          65.3128   92.5187   11.1043 C.3     1  UNL1        0.0495
     23 C          65.6931   92.5759   12.5541 C.ar    1  UNL1       -0.0068
     24 C          66.7778   93.3162   13.2788 C.ar    1  UNL1       -0.0030
     25 C          66.9173   93.1758   14.7657 C.ar    1  UNL1       -0.0002
     26 C          65.9722   92.2950   15.5279 C.ar    1  UNL1        0.0013
     27 C          64.8874   91.5546   14.8031 C.ar    1  UNL1        0.0146
     28 C          64.7478   91.6951   13.3162 C.ar    1  UNL1        0.0499
@<TRIPOS>BOND
     1    12    13   am
     2    13    14    2
     3    13     1    1
     4     1     2   ar
     5     2     3   ar
     6     3     6    1
     7     6     7    1
     8     7     8    1
     9     8     9    1
    10     9    10    1
    11    10    11    1
    12     3     4   ar
    13     4     5   ar
    14     5    17    1
    15    17    18    1
    16    18    19    2
    17    18    20   am
    18    20    21    1
    19    21    22    1
    20    22    23    1
    21    23    24   ar
    22    24    25   ar
    23    25    26   ar
    24    26    27   ar
    25    27    28   ar
    26     5     1   ar
    27    28    20    1
    28    11     6    1
    29    28    23   ar
    30    12    15    1
    31    12    16    1
@<TRIPOS>MOLECULE
*****
 28 31 0 0 0
SMALL
GASTEIGER

@<TRIPOS>ATOM
      1 C          61.7907   88.9729   11.2535 C.ar    1  UNL1        0.0991
      2 S          62.1729   90.1778   12.0612 S.2     1  UNL1       -0.0473
      3 C          63.3073   89.7906   12.9629 C.ar    1  UNL1        0.1630
      4 N          63.6263   88.3464   12.7127 N.ar    1  UNL1       -0.2278
      5 C          62.6890   87.8411   11.6562 C.ar    1  UNL1        0.0805
      6 N          64.0010   90.6897   13.9429 N.pl3   1  UNL1       -0.2830
      7 C          65.1250   91.5716   13.4861 C.3     1  UNL1        0.1247
      8 C          65.8187   92.4707   14.4661 C.3     1  UNL1        0.1636
      9 O          65.3882   92.4880   15.9030 O.3     1  UNL1       -0.3501
     10 C          64.2641   91.6061   16.3597 C.3     1  UNL1        0.1636
     11 C          63.5705   90.7070   15.3797 C.3     1  UNL1        0.1247
     12 N          60.5426   90.0248    9.2323 N.am    1  UNL1       -0.3249
     13 C          60.7016   88.9108   10.2241 C.2     1  UNL1        0.2500
     14 O          59.7714   87.7346   10.1864 O.2     1  UNL1       -0.2698
     15 H          59.8277   89.9840    8.5566 H       1  UNL1        0.1453
     16 H          61.1531   90.7967    9.2570 H       1  UNL1        0.1453
     17 C          62.6558   86.4484   11.1000 C.3     1  UNL1        0.1319
     18 C          62.3867   85.2847   12.0074 C.2     1  UNL1        0.2354
     19 O          61.7511   85.5096   13.3473 O.2     1  UNL1       -0.2741
     20 N          62.7532   83.8959   11.5748 N.am    1  UNL1       -0.2583
     21 C          63.3912   83.5182   10.2709 C.3     1  UNL1        0.1029
     22 C          63.5783   82.0299   10.2605 C.3     1  UNL1        0.0495
     23 C          63.0561   81.4879   11.5578 C.ar    1  UNL1       -0.0068
     24 C          62.9789   80.0932   12.1046 C.ar    1  UNL1       -0.0030
     25 C          62.3918   79.8518   13.4636 C.ar    1  UNL1       -0.0002
     26 C          61.8818   81.0050   14.2760 C.ar    1  UNL1        0.0013
     27 C          61.9590   82.3998   13.7293 C.ar    1  UNL1        0.0146
     28 C          62.5461   82.6412   12.3702 C.ar    1  UNL1        0.0499
@<TRIPOS>BOND
     1    12    13   am
     2    13    14    2
     3    13     1    1
     4     1     2   ar
     5     2     3   ar
     6     3     6    1
     7     6     7    1
     8     7     8    1
     9     8     9    1
    10     9    10    1
    11    10    11    1
    12     3     4   ar
    13     4     5   ar
    14     5    17    1
    15    17    18    1
    16    18    19    2
    17    18    20   am
    18    20    21    1
    19    21    22    1
    20    22    23    1
    21    23    24   ar
    22    24    25   ar
    23    25    26   ar
    24    26    27   ar
    25    27    28   ar
    26     5     1   ar
    27    28    20    1
    28    11     6    1
    29    28    23   ar
    30    12    15    1
    31    12    16    1
@<TRIPOS>MOLECULE
*****
 28 31 0 0 0
SMALL
GASTEIGER

@<TRIPOS>ATOM
      1 C          63.1033   88.7863   12.5631 C.ar    1  UNL1        0.0991
      2 S          62.2518   89.2549   11.4206 S.2     1  UNL1       -0.0473
      3 C          61.7149   88.0447   10.7157 C.ar    1  UNL1        0.1630
      4 N          62.2345   86.8280   11.4225 N.ar    1  UNL1       -0.2278
      5 C          63.0926   87.2863   12.5642 C.ar    1  UNL1        0.0805
      6 N          60.8161   88.0502    9.5148 N.pl3   1  UNL1       -0.2830
      7 C          60.2544   86.7612    8.9925 C.3     1  UNL1        0.1247
      8 C          59.3556   86.7667    7.7916 C.3     1  UNL1        0.1636
      9 O          59.0185   88.0613    7.1130 O.3     1  UNL1       -0.3501
     10 C          59.5803   89.3503    7.6354 C.3     1  UNL1        0.1636
     11 C          60.4790   89.3447    8.8362 C.3     1  UNL1        0.1247
     12 N          63.7625   89.3800   15.0050 N.am    1  UNL1       -0.3249
     13 C          63.8368   89.6635   13.5339 C.2     1  UNL1        0.2500
     14 O          64.6445   90.8243   13.0336 O.2     1  UNL1       -0.2698
     15 H          64.2439   89.9558   15.6422 H       1  UNL1        0.1453
     16 H          63.2324   88.6182   15.3333 H       1  UNL1        0.1453
     17 C          63.8135   86.4002   13.5365 C.3     1  UNL1        0.1319
     18 C          63.2347   85.0671   13.9077 C.2     1  UNL1        0.2354
     19 O          62.4989   84.9038   15.2045 O.2     1  UNL1       -0.2741
     20 N          63.3919   83.8973   12.9821 N.am    1  UNL1       -0.2583
     21 C          64.0983   83.9085   11.6590 C.3     1  UNL1        0.1029
     22 C          64.0132   82.5290   11.0763 C.3     1  UNL1        0.0495
     23 C          63.2542   81.6650   12.0393 C.ar    1  UNL1       -0.0068
     24 C          62.8631   80.2176   11.9959 C.ar    1  UNL1       -0.0030
     25 C          62.0880   79.6157   13.1304 C.ar    1  UNL1       -0.0002
     26 C          61.7040   80.4614   14.3083 C.ar    1  UNL1        0.0013
     27 C          62.0951   81.9089   14.3517 C.ar    1  UNL1        0.0146
     28 C          62.8702   82.5107   13.2172 C.ar    1  UNL1        0.0499
@<TRIPOS>BOND
     1    12    13   am
     2    13    14    2
     3    13     1    1
     4     1     2   ar
     5     2     3   ar
     6     3     6    1
     7     6     7    1
     8     7     8    1
     9     8     9    1
    10     9    10    1
    11    10    11    1
    12     3     4   ar
    13     4     5   ar
    14     5    17    1
    15    17    18    1
    16    18    19    2
    17    18    20   am
    18    20    21    1
    19    21    22    1
    20    22    23    1
    21    23    24   ar
    22    24    25   ar
    23    25    26   ar
    24    26    27   ar
    25    27    28   ar
    26     5     1   ar
    27    28    20    1
    28    11     6    1
    29    28    23   ar
    30    12    15    1
    31    12    16    1
@<TRIPOS>MOLECULE
*****
 28 31 0 0 0
SMALL
GASTEIGER

@<TRIPOS>ATOM
      1 C          64.5251   91.5159   13.8178 C.ar    1  UNL1        0.0991
      2 S          65.5078   92.5221   13.2963 S.2     1  UNL1       -0.0473
      3 C          65.5501   92.3975   11.8021 C.ar    1  UNL1        0.1630
      4 N          64.5934   91.3144   11.4000 N.ar    1  UNL1       -0.2278
      5 C          63.9600   90.7696   12.6458 C.ar    1  UNL1        0.0805
      6 N          66.3998   93.2129   10.8731 N.pl3   1  UNL1       -0.2830
      7 C          67.4870   92.5533   10.0777 C.3     1  UNL1        0.1247
      8 C          68.3368   93.3687    9.1487 C.3     1  UNL1        0.1636
      9 O          68.0992   94.8438    9.0151 O.3     1  UNL1       -0.3501
     10 C          67.0120   95.5034    9.8106 C.3     1  UNL1        0.1636
     11 C          66.1623   94.6879   10.7396 C.3     1  UNL1        0.1247
     12 N          64.9683   91.9622   16.3385 N.am    1  UNL1       -0.3249
     13 C          64.1698   91.2950   15.2582 C.2     1  UNL1        0.2500
     14 O          63.0159   90.4068   15.6184 O.2     1  UNL1       -0.2698
     15 H          64.7351   91.8172   17.2840 H       1  UNL1        0.1453
     16 H          65.7256   92.5452   16.1021 H       1  UNL1        0.1453
     17 C          62.9403   89.6712   12.7085 C.3     1  UNL1        0.1319
     18 C          63.3630   88.2743   13.0551 C.2     1  UNL1        0.2354
     19 O          64.2514   88.0315   14.2391 O.2     1  UNL1       -0.2741
     20 N          62.8973   87.1203   12.2177 N.am    1  UNL1       -0.2583
     21 C          62.0113   87.2077   11.0106 C.3     1  UNL1        0.1029
     22 C          61.8024   85.8176   10.4872 C.3     1  UNL1        0.0495
     23 C          62.5592   84.8709   11.3709 C.ar    1  UNL1       -0.0068
     24 C          62.7197   83.3799   11.3399 C.ar    1  UNL1       -0.0030
     25 C          63.5569   82.6939   12.3784 C.ar    1  UNL1       -0.0002
     26 C          64.2337   83.4989   13.4479 C.ar    1  UNL1        0.0013
     27 C          64.0732   84.9901   13.4789 C.ar    1  UNL1        0.0146
     28 C          63.2360   85.6761   12.4404 C.ar    1  UNL1        0.0499
@<TRIPOS>BOND
     1    12    13   am
     2    13    14    2
     3    13     1    1
     4     1     2   ar
     5     2     3   ar
     6     3     6    1
     7     6     7    1
     8     7     8    1
     9     8     9    1
    10     9    10    1
    11    10    11    1
    12     3     4   ar
    13     4     5   ar
    14     5    17    1
    15    17    18    1
    16    18    19    2
    17    18    20   am
    18    20    21    1
    19    21    22    1
    20    22    23    1
    21    23    24   ar
    22    24    25   ar
    23    25    26   ar
    24    26    27   ar
    25    27    28   ar
    26     5     1   ar
    27    28    20    1
    28    11     6    1
    29    28    23   ar
    30    12    15    1
    31    12    16    1
@<TRIPOS>MOLECULE
*****
 28 31 0 0 0
SMALL
GASTEIGER

@<TRIPOS>ATOM
      1 C          61.2777   88.7476   10.8107 C.ar    1  UNL1        0.0991
      2 S          61.3708   87.2515   10.8640 S.2     1  UNL1       -0.0473
      3 C          62.5162   86.8901   11.7627 C.ar    1  UNL1        0.1630
      4 N          63.1309   88.1629   12.2648 N.ar    1  UNL1       -0.2278
      5 C          62.3655   89.3109   11.6764 C.ar    1  UNL1        0.0805
      6 N          62.9675   85.4999   12.1001 N.pl3   1  UNL1       -0.2830
      7 C          63.6084   85.2208   13.4271 C.3     1  UNL1        0.1247
      8 C          64.0598   83.8307   13.7645 C.3     1  UNL1        0.1636
      9 O          63.8701   82.7196   12.7747 O.3     1  UNL1       -0.3501
     10 C          63.2292   82.9988   11.4476 C.3     1  UNL1        0.1636
     11 C          62.7779   84.3889   11.1103 C.3     1  UNL1        0.1247
     12 N          59.4910   90.6306   10.7006 N.am    1  UNL1       -0.3249
     13 C          60.2732   89.5412   10.0289 C.2     1  UNL1        0.2500
     14 O          60.0508   89.2452    8.5752 O.2     1  UNL1       -0.2698
     15 H          58.8317   91.1514   10.1875 H       1  UNL1        0.1453
     16 H          59.6370   90.8248   11.6547 H       1  UNL1        0.1453
     17 C          62.6397   90.7666   11.9123 C.3     1  UNL1        0.1319
     18 C          64.0456   91.2378   12.1389 C.2     1  UNL1        0.2354
     19 O          64.9328   91.5415   10.9682 O.2     1  UNL1       -0.2741
     20 N          64.5643   91.4055   13.5364 N.am    1  UNL1       -0.2583
     21 C          63.7982   91.1421   14.7987 C.3     1  UNL1        0.1029
     22 C          64.7007   91.4398   15.9593 C.3     1  UNL1        0.0495
     23 C          66.0246   91.8871   15.4143 C.ar    1  UNL1       -0.0068
     24 C          67.2959   92.3111   16.0880 C.ar    1  UNL1       -0.0030
     25 C          68.4831   92.7138   15.2642 C.ar    1  UNL1       -0.0002
     26 C          68.3988   92.6926   13.7668 C.ar    1  UNL1        0.0013
     27 C          67.1274   92.2687   13.0930 C.ar    1  UNL1        0.0146
     28 C          65.9403   91.8659   13.9167 C.ar    1  UNL1        0.0499
@<TRIPOS>BOND
     1    12    13   am
     2    13    14    2
     3    13     1    1
     4     1     2   ar
     5     2     3   ar
     6     3     6    1
     7     6     7    1
     8     7     8    1
     9     8     9    1
    10     9    10    1
    11    10    11    1
    12     3     4   ar
    13     4     5   ar
    14     5    17    1
    15    17    18    1
    16    18    19    2
    17    18    20   am
    18    20    21    1
    19    21    22    1
    20    22    23    1
    21    23    24   ar
    22    24    25   ar
    23    25    26   ar
    24    26    27   ar
    25    27    28   ar
    26     5     1   ar
    27    28    20    1
    28    11     6    1
    29    28    23   ar
    30    12    15    1
    31    12    16    1
@<TRIPOS>MOLECULE
*****
 28 31 0 0 0
SMALL
GASTEIGER

@<TRIPOS>ATOM
      1 C          62.8377   90.8930   10.9547 C.ar    1  UNL1        0.0991
      2 S          63.5811   91.9708   10.2229 S.2     1  UNL1       -0.0473
      3 C          64.9030   92.1668   10.9041 C.ar    1  UNL1        0.1630
      4 N          64.9767   91.2101   12.0570 N.ar    1  UNL1       -0.2278
      5 C          63.7002   90.4228   12.0883 C.ar    1  UNL1        0.0805
      6 N          65.9648   93.1474   10.5029 N.pl3   1  UNL1       -0.2830
      7 C          67.2296   92.6617    9.8592 C.3     1  UNL1        0.1247
      8 C          68.2914   93.6423    9.4580 C.3     1  UNL1        0.1636
      9 O          68.0884   95.1087    9.7005 O.3     1  UNL1       -0.3501
     10 C          66.8236   95.5942   10.3443 C.3     1  UNL1        0.1636
     11 C          65.7619   94.6136   10.7455 C.3     1  UNL1        0.1247
     12 N          61.2233   89.7387    9.2781 N.am    1  UNL1       -0.3249
     13 C          61.4717   90.3760   10.6130 C.2     1  UNL1        0.2500
     14 O          60.3541   90.4965   11.6062 O.2     1  UNL1       -0.2698
     15 H          60.3267   89.3994    9.0538 H       1  UNL1        0.1453
     16 H          61.9568   89.6596    8.6262 H       1  UNL1        0.1453
     17 C          63.3482   89.3531   13.0791 C.3     1  UNL1        0.1319
     18 C          63.1441   87.9407   12.6173 C.2     1  UNL1        0.2354
     19 O          62.4399   87.6698   11.3209 O.2     1  UNL1       -0.2741
     20 N          63.6444   86.7990   13.4518 N.am    1  UNL1       -0.2583
     21 C          64.3627   86.9142   14.7636 C.3     1  UNL1        0.1029
     22 C          64.6764   85.5282   15.2435 C.3     1  UNL1        0.0495
     23 C          64.1520   84.5563   14.2285 C.ar    1  UNL1       -0.0068
     24 C          64.1729   83.0576   14.1694 C.ar    1  UNL1       -0.0030
     25 C          63.5559   82.3443   13.0029 C.ar    1  UNL1       -0.0002
     26 C          62.9181   83.1298   11.8955 C.ar    1  UNL1        0.0013
     27 C          62.8972   84.6285   11.9546 C.ar    1  UNL1        0.0146
     28 C          63.5142   85.3418   13.1211 C.ar    1  UNL1        0.0499
@<TRIPOS>BOND
     1    12    13   am
     2    13    14    2
     3    13     1    1
     4     1     2   ar
     5     2     3   ar
     6     3     6    1
     7     6     7    1
     8     7     8    1
     9     8     9    1
    10     9    10    1
    11    10    11    1
    12     3     4   ar
    13     4     5   ar
    14     5    17    1
    15    17    18    1
    16    18    19    2
    17    18    20   am
    18    20    21    1
    19    21    22    1
    20    22    23    1
    21    23    24   ar
    22    24    25   ar
    23    25    26   ar
    24    26    27   ar
    25    27    28   ar
    26     5     1   ar
    27    28    20    1
    28    11     6    1
    29    28    23   ar
    30    12    15    1
    31    12    16    1
