@<TRIPOS>MOLECULE
*****
 27 30 0 0 0
SMALL
GASTEIGER

@<TRIPOS>ATOM
      1 C          63.9584   86.8996   14.1986 C.3     1  UNL1        0.0795
      2 C          64.1764   88.3835   14.1806 C.3     1  UNL1        0.0178
      3 C          63.7136   89.1954   13.0073 C.3     1  UNL1        0.0029
      4 C          63.0326   88.5234   11.8520 C.3     1  UNL1        0.0178
      5 C          62.8145   87.0395   11.8700 C.3     1  UNL1        0.0799
      6 N          63.2774   86.2276   13.0433 N.3     1  UNL1       -0.1583
      7 C          62.1336   86.3674   10.7147 C.3     1  UNL1        0.0239
      8 C          61.9184   85.4633    9.5374 C.3     1  UNL1        0.0019
      9 C          63.2384   85.4656   10.2498 C.3     1  UNL1        0.0019
     10 C          60.7922   87.0358   10.7785 C.3     1  UNL1        0.0866
     11 C          60.1894   87.6273    9.5388 C.ar    1  UNL1        0.2059
     12 N          60.4756   88.9911    8.9835 N.ar    1  UNL1       -0.2103
     13 C          59.6577   89.1656    7.7383 C.ar    1  UNL1        0.1424
     14 C          58.8659   87.9097    7.5241 C.ar    1  UNL1        0.2018
     15 O          59.1946   86.9590    8.6369 O.2     1  UNL1       -0.4352
     16 S          63.0593   84.7436   13.0613 S.O2    1  UNL1        0.0632
     17 O          61.6900   84.9518   13.6369 O.2     1  UNL1       -0.1528
     18 O          64.2077   84.2386   12.5624 O.2     1  UNL1       -0.1528
     19 C          62.8412   83.2597   13.0792 C.ar    1  UNL1        0.1222
     20 C          63.2284   82.4302   11.8909 C.ar    1  UNL1        0.0208
     21 C          63.0103   80.9463   11.9089 C.ar    1  UNL1        0.0128
     22 C          62.4049   80.2917   13.1151 C.ar    1  UNL1        0.0578
     23 CL         62.1867   78.8078   13.1331 Cl      1  UNL1       -0.0822
     24 C          62.0176   81.1211   14.3034 C.ar    1  UNL1        0.0128
     25 C          62.2358   82.6051   14.2855 C.ar    1  UNL1        0.0208
     26 C          63.5422   85.9451   16.5788 C.3     1  UNL1        0.0015
     27 C          64.4212   86.0877   15.3718 C.3     1  UNL1        0.0177
@<TRIPOS>BOND
     1    26    27    1
     2     1    27    1
     3     1     2    1
     4     2     3    1
     5     3     4    1
     6     4     5    1
     7     5     7    1
     8     7    10    1
     9    10    11    1
    10    11    12   ar
    11    12    13   ar
    12    13    14   ar
    13    14    15   ar
    14     7     8    1
    15     8     9    1
    16     5     6    1
    17     6    16    1
    18    16    17    2
    19    16    18    2
    20    16    19    1
    21    19    20   ar
    22    20    21   ar
    23    21    22   ar
    24    22    23    1
    25    22    24   ar
    26    24    25   ar
    27     6     1    1
    28    25    19   ar
    29     9     7    1
    30    15    11   ar
@<TRIPOS>MOLECULE
*****
 27 30 0 0 0
SMALL
GASTEIGER

@<TRIPOS>ATOM
      1 C          59.9754   88.8115    9.0598 C.3     1  UNL1        0.0795
      2 C          59.0673   88.2460    8.0084 C.3     1  UNL1        0.0178
      3 C          59.2339   86.8246    7.5590 C.3     1  UNL1        0.0029
      4 C          60.3086   85.9687    8.1611 C.3     1  UNL1        0.0178
      5 C          61.2166   86.5343    9.2125 C.3     1  UNL1        0.0799
      6 N          61.0500   87.9557    9.6619 N.3     1  UNL1       -0.1583
      7 C          62.2914   85.6784    9.8147 C.3     1  UNL1        0.0239
      8 C          63.5663   84.8985    9.9420 C.3     1  UNL1        0.0019
      9 C          63.2413   85.5998    8.6564 C.3     1  UNL1        0.0019
     10 C          61.7147   85.4598   11.1820 C.3     1  UNL1        0.0866
     11 C          62.4241   84.5733   12.1622 C.ar    1  UNL1        0.2059
     12 N          63.1667   85.0268   13.3842 N.ar    1  UNL1       -0.2103
     13 C          63.7171   83.8116   14.0698 C.ar    1  UNL1        0.1424
     14 C          63.3147   82.6070   13.2716 C.ar    1  UNL1        0.2018
     15 O          62.5156   83.0778   12.0927 O.2     1  UNL1       -0.4352
     16 S          61.9582   88.5212   10.7133 S.O2    1  UNL1        0.0632
     17 O          62.8746   89.0376    9.6440 O.2     1  UNL1       -0.1528
     18 O          61.3556   88.1933   11.8761 O.2     1  UNL1       -0.1528
     19 C          62.8663   89.0867   11.7647 C.ar    1  UNL1        0.1222
     20 C          63.2702   90.5303   11.7095 C.ar    1  UNL1        0.0208
     21 C          64.1783   91.0958   12.7608 C.ar    1  UNL1        0.0128
     22 C          64.6826   90.2178   13.8675 C.ar    1  UNL1        0.0578
     23 CL         65.5908   90.7833   14.9189 Cl      1  UNL1       -0.0822
     24 C          64.2788   88.7742   13.9228 C.ar    1  UNL1        0.0128
     25 C          63.3706   88.2087   12.8714 C.ar    1  UNL1        0.0208
     26 C          59.4422   90.5314   10.9327 C.3     1  UNL1        0.0015
     27 C          59.8088   90.2329    9.5091 C.3     1  UNL1        0.0177
@<TRIPOS>BOND
     1    26    27    1
     2     1    27    1
     3     1     2    1
     4     2     3    1
     5     3     4    1
     6     4     5    1
     7     5     7    1
     8     7    10    1
     9    10    11    1
    10    11    12   ar
    11    12    13   ar
    12    13    14   ar
    13    14    15   ar
    14     7     8    1
    15     8     9    1
    16     5     6    1
    17     6    16    1
    18    16    17    2
    19    16    18    2
    20    16    19    1
    21    19    20   ar
    22    20    21   ar
    23    21    22   ar
    24    22    23    1
    25    22    24   ar
    26    24    25   ar
    27     6     1    1
    28    25    19   ar
    29     9     7    1
    30    15    11   ar
@<TRIPOS>MOLECULE
*****
 27 30 0 0 0
SMALL
GASTEIGER

@<TRIPOS>ATOM
      1 C          64.0434   86.9245   14.1137 C.3     1  UNL1        0.0795
      2 C          64.2620   88.4084   14.1188 C.3     1  UNL1        0.0178
      3 C          63.7363   89.2478   12.9922 C.3     1  UNL1        0.0029
      4 C          62.9920   88.6033   11.8606 C.3     1  UNL1        0.0178
      5 C          62.7734   87.1193   11.8556 C.3     1  UNL1        0.0799
      6 N          63.2991   86.2799   12.9821 N.3     1  UNL1       -0.1583
      7 C          62.0291   86.4747   10.7239 C.3     1  UNL1        0.0239
      8 C          61.7743   85.7180    9.4541 C.3     1  UNL1        0.0019
      9 C          63.1803   85.9281    9.9327 C.3     1  UNL1        0.0019
     10 C          60.6194   86.7974   11.1222 C.3     1  UNL1        0.0866
     11 C          60.1527   88.2229   11.1399 C.ar    1  UNL1        0.2059
     12 N          59.4228   88.8979   12.2632 N.ar    1  UNL1       -0.2103
     13 C          59.1530   90.3157   11.8550 C.ar    1  UNL1        0.1424
     14 C          59.7163   90.5172   10.4794 C.ar    1  UNL1        0.2018
     15 O          60.3341   89.2237   10.0374 O.2     1  UNL1       -0.4352
     16 S          63.0804   84.7959   12.9770 S.O2    1  UNL1        0.0632
     17 O          61.7981   84.9823   13.7324 O.2     1  UNL1       -0.1528
     18 O          64.1527   84.3100   12.3162 O.2     1  UNL1       -0.1528
     19 C          62.8618   83.3120   12.9719 C.ar    1  UNL1        0.1222
     20 C          62.3575   82.6239   14.2058 C.ar    1  UNL1        0.0208
     21 C          62.1388   81.1400   14.2007 C.ar    1  UNL1        0.0128
     22 C          62.4244   80.3440   12.9618 C.ar    1  UNL1        0.0578
     23 CL         62.2057   78.8601   12.9567 Cl      1  UNL1       -0.0822
     24 C          62.9286   81.0320   11.7280 C.ar    1  UNL1        0.0128
     25 C          63.1473   82.5160   11.7330 C.ar    1  UNL1        0.0208
     26 C          63.7327   85.8660   16.4660 C.3     1  UNL1        0.0015
     27 C          64.5691   86.0851   15.2402 C.3     1  UNL1        0.0177
@<TRIPOS>BOND
     1    26    27    1
     2     1    27    1
     3     1     2    1
     4     2     3    1
     5     3     4    1
     6     4     5    1
     7     5     7    1
     8     7    10    1
     9    10    11    1
    10    11    12   ar
    11    12    13   ar
    12    13    14   ar
    13    14    15   ar
    14     7     8    1
    15     8     9    1
    16     5     6    1
    17     6    16    1
    18    16    17    2
    19    16    18    2
    20    16    19    1
    21    19    20   ar
    22    20    21   ar
    23    21    22   ar
    24    22    23    1
    25    22    24   ar
    26    24    25   ar
    27     6     1    1
    28    25    19   ar
    29     9     7    1
    30    15    11   ar
@<TRIPOS>MOLECULE
*****
 27 30 0 0 0
SMALL
GASTEIGER

@<TRIPOS>ATOM
      1 C          65.5472   91.8857   12.7921 C.3     1  UNL1        0.0795
      2 C          65.8585   92.8405   11.6780 C.3     1  UNL1        0.0178
      3 C          64.9816   92.8857   10.4619 C.3     1  UNL1        0.0029
      4 C          63.7933   91.9761   10.3599 C.3     1  UNL1        0.0178
      5 C          63.4819   91.0213   11.4740 C.3     1  UNL1        0.0799
      6 N          64.3589   90.9761   12.6901 N.3     1  UNL1       -0.1583
      7 C          62.2935   90.1116   11.3720 C.3     1  UNL1        0.0239
      8 C          60.9211   89.5538   11.6072 C.3     1  UNL1        0.0019
      9 C          61.3507   90.8089   12.3075 C.3     1  UNL1        0.0019
     10 C          62.8237   89.0985   10.4012 C.3     1  UNL1        0.0866
     11 C          62.4264   87.6577   10.5291 C.ar    1  UNL1        0.2059
     12 N          61.8454   86.8034    9.4415 N.ar    1  UNL1       -0.2103
     13 C          61.6003   85.4360   10.0072 C.ar    1  UNL1        0.1424
     14 C          62.0297   85.4452   11.4444 C.ar    1  UNL1        0.2018
     15 O          62.5403   86.8183   11.7669 O.2     1  UNL1       -0.4352
     16 S          64.0474   90.0212   13.8042 S.O2    1  UNL1        0.0632
     17 O          63.5294   91.1583   14.6340 O.2     1  UNL1       -0.1528
     18 O          64.4320   88.8202   13.3222 O.2     1  UNL1       -0.1528
     19 C          63.7360   89.0663   14.9183 C.ar    1  UNL1        0.1222
     20 C          63.0993   89.5683   16.1804 C.ar    1  UNL1        0.0208
     21 C          62.7879   88.6135   17.2945 C.ar    1  UNL1        0.0128
     22 C          63.1131   87.1567   17.1467 C.ar    1  UNL1        0.0578
     23 CL         62.8017   86.2019   18.2608 Cl      1  UNL1       -0.0822
     24 C          63.7498   86.6547   15.8847 C.ar    1  UNL1        0.0128
     25 C          64.0613   87.6095   14.7705 C.ar    1  UNL1        0.0208
     26 C          67.9142   91.9322   13.8622 C.3     1  UNL1        0.0015
     27 C          66.4241   91.8405   14.0082 C.3     1  UNL1        0.0177
@<TRIPOS>BOND
     1    26    27    1
     2     1    27    1
     3     1     2    1
     4     2     3    1
     5     3     4    1
     6     4     5    1
     7     5     7    1
     8     7    10    1
     9    10    11    1
    10    11    12   ar
    11    12    13   ar
    12    13    14   ar
    13    14    15   ar
    14     7     8    1
    15     8     9    1
    16     5     6    1
    17     6    16    1
    18    16    17    2
    19    16    18    2
    20    16    19    1
    21    19    20   ar
    22    20    21   ar
    23    21    22   ar
    24    22    23    1
    25    22    24   ar
    26    24    25   ar
    27     6     1    1
    28    25    19   ar
    29     9     7    1
    30    15    11   ar
@<TRIPOS>MOLECULE
*****
 27 30 0 0 0
SMALL
GASTEIGER

@<TRIPOS>ATOM
      1 C          63.5773   88.1658   13.3572 C.3     1  UNL1        0.0795
      2 C          64.4563   87.8611   14.5338 C.3     1  UNL1        0.0178
      3 C          64.8211   86.4409   14.8497 C.3     1  UNL1        0.0029
      4 C          64.3068   85.3252   13.9890 C.3     1  UNL1        0.0178
      5 C          63.4278   85.6299   12.8124 C.3     1  UNL1        0.0799
      6 N          63.0630   87.0502   12.4965 N.3     1  UNL1       -0.1583
      7 C          62.9134   84.5142   11.9516 C.3     1  UNL1        0.0239
      8 C          62.6909   83.6541   10.7430 C.3     1  UNL1        0.0019
      9 C          63.5749   84.8625   10.6511 C.3     1  UNL1        0.0019
     10 C          62.0734   83.7786   12.9532 C.3     1  UNL1        0.0866
     11 C          62.3794   82.3474   13.2819 C.ar    1  UNL1        0.2059
     12 N          63.7340   81.7853   13.5971 N.ar    1  UNL1       -0.2103
     13 C          63.5764   80.3176   13.8631 C.ar    1  UNL1        0.1424
     14 C          62.1244   79.9725   13.7123 C.ar    1  UNL1        0.2018
     15 O          61.3847   81.2270   13.3531 O.2     1  UNL1       -0.4352
     16 S          62.1839   87.3548   11.3198 S.O2    1  UNL1        0.0632
     17 O          61.0050   86.7881   12.0539 O.2     1  UNL1       -0.1528
     18 O          63.0220   87.9159   10.4225 O.2     1  UNL1       -0.1528
     19 C          61.3048   87.6594   10.1432 C.ar    1  UNL1        0.1222
     20 C          60.6858   86.5399    9.3598 C.ar    1  UNL1        0.0208
     21 C          59.8067   86.8445    8.1832 C.ar    1  UNL1        0.0128
     22 C          59.5466   88.2685    7.7899 C.ar    1  UNL1        0.0578
     23 CL         58.6676   88.5731    6.6134 Cl      1  UNL1       -0.0822
     24 C          60.1656   89.3879    8.5733 C.ar    1  UNL1        0.0128
     25 C          61.0448   89.0833    9.7500 C.ar    1  UNL1        0.0208
     26 C          64.1376   90.7017   13.4278 C.3     1  UNL1        0.0015
     27 C          63.2125   89.5860   13.0413 C.3     1  UNL1        0.0177
@<TRIPOS>BOND
     1    26    27    1
     2     1    27    1
     3     1     2    1
     4     2     3    1
     5     3     4    1
     6     4     5    1
     7     5     7    1
     8     7    10    1
     9    10    11    1
    10    11    12   ar
    11    12    13   ar
    12    13    14   ar
    13    14    15   ar
    14     7     8    1
    15     8     9    1
    16     5     6    1
    17     6    16    1
    18    16    17    2
    19    16    18    2
    20    16    19    1
    21    19    20   ar
    22    20    21   ar
    23    21    22   ar
    24    22    23    1
    25    22    24   ar
    26    24    25   ar
    27     6     1    1
    28    25    19   ar
    29     9     7    1
    30    15    11   ar
@<TRIPOS>MOLECULE
*****
 27 30 0 0 0
SMALL
GASTEIGER

@<TRIPOS>ATOM
      1 C          60.9898   92.9875    1.9372 C.3     1  UNL1        0.0795
      2 C          62.3130   92.6279    2.5454 C.3     1  UNL1        0.0178
      3 C          63.5843   92.9349    1.8108 C.3     1  UNL1        0.0029
      4 C          63.5324   93.6014    0.4680 C.3     1  UNL1        0.0178
      5 C          62.2092   93.9609   -0.1401 C.3     1  UNL1        0.0799
      6 N          60.9379   93.6540    0.5945 N.3     1  UNL1       -0.1583
      7 C          62.1572   94.6275   -1.4830 C.3     1  UNL1        0.0239
      8 C          62.1659   95.7112   -2.5199 C.3     1  UNL1        0.0019
      9 C          62.3139   96.0606   -1.0687 C.3     1  UNL1        0.0019
     10 C          61.9825   93.4258   -2.3635 C.3     1  UNL1        0.0866
     11 C          62.9040   93.2082   -3.5270 C.ar    1  UNL1        0.2059
     12 N          64.2366   92.5211   -3.4799 N.ar    1  UNL1       -0.2103
     13 C          64.8109   92.5278   -4.8655 C.ar    1  UNL1        0.1424
     14 C          63.8333   93.2191   -5.7691 C.ar    1  UNL1        0.2018
     15 O          62.6547   93.6396   -4.9418 O.2     1  UNL1       -0.4352
     16 S          59.6147   94.0135   -0.0137 S.O2    1  UNL1        0.0632
     17 O          59.6635   95.3482    0.6691 O.2     1  UNL1       -0.1528
     18 O          59.2839   92.9263   -0.7425 O.2     1  UNL1       -0.1528
     19 C          58.2915   94.3731   -0.6219 C.ar    1  UNL1        0.1222
     20 C          57.3285   93.2925   -1.0156 C.ar    1  UNL1        0.0208
     21 C          56.0054   93.6521   -1.6237 C.ar    1  UNL1        0.0128
     22 C          55.6452   95.0923   -1.8383 C.ar    1  UNL1        0.0578
     23 CL         54.3220   95.4519   -2.4464 Cl      1  UNL1       -0.0822
     24 C          56.6081   96.1729   -1.4446 C.ar    1  UNL1        0.0128
     25 C          57.9313   95.8134   -0.8364 C.ar    1  UNL1        0.0208
     26 C          59.7580   92.3551    4.1356 C.3     1  UNL1        0.0015
     27 C          59.7186   92.6805    2.6718 C.3     1  UNL1        0.0177
@<TRIPOS>BOND
     1    26    27    1
     2     1    27    1
     3     1     2    1
     4     2     3    1
     5     3     4    1
     6     4     5    1
     7     5     7    1
     8     7    10    1
     9    10    11    1
    10    11    12   ar
    11    12    13   ar
    12    13    14   ar
    13    14    15   ar
    14     7     8    1
    15     8     9    1
    16     5     6    1
    17     6    16    1
    18    16    17    2
    19    16    18    2
    20    16    19    1
    21    19    20   ar
    22    20    21   ar
    23    21    22   ar
    24    22    23    1
    25    22    24   ar
    26    24    25   ar
    27     6     1    1
    28    25    19   ar
    29     9     7    1
    30    15    11   ar
@<TRIPOS>MOLECULE
*****
 27 30 0 0 0
SMALL
GASTEIGER

@<TRIPOS>ATOM
      1 C          62.3907   93.2727    1.3000 C.3     1  UNL1        0.0795
      2 C          61.5711   92.8285    2.4750 C.3     1  UNL1        0.0178
      3 C          60.0742   92.9080    2.4184 C.3     1  UNL1        0.0029
      4 C          59.3971   93.4316    1.1867 C.3     1  UNL1        0.0178
      5 C          60.2167   93.8758    0.0116 C.3     1  UNL1        0.0799
      6 N          61.7135   93.7963    0.0682 N.3     1  UNL1       -0.1583
      7 C          59.5396   94.3994   -1.2202 C.3     1  UNL1        0.0239
      8 C          58.8730   95.3566   -2.1634 C.3     1  UNL1        0.0019
      9 C          59.3347   95.8296   -0.8169 C.3     1  UNL1        0.0019
     10 C          59.5092   93.1511   -2.0513 C.3     1  UNL1        0.0866
     11 C          58.1955   92.5341   -2.4302 C.ar    1  UNL1        0.2059
     12 N          57.0166   92.3432   -1.5225 N.ar    1  UNL1       -0.2103
     13 C          55.9226   91.6908   -2.3145 C.ar    1  UNL1        0.1424
     14 C          56.4253   91.4784   -3.7117 C.ar    1  UNL1        0.2018
     15 O          57.8301   91.9996   -3.7832 O.2     1  UNL1       -0.4352
     16 S          62.5332   94.2405   -1.1069 S.O2    1  UNL1        0.0632
     17 O          62.5756   95.6330   -0.5509 O.2     1  UNL1       -0.1528
     18 O          62.6746   93.1212   -1.8483 O.2     1  UNL1       -0.1528
     19 C          63.3528   94.6847   -2.2820 C.ar    1  UNL1        0.1222
     20 C          64.4274   95.7154   -2.1002 C.ar    1  UNL1        0.0208
     21 C          65.2471   96.1596   -3.2753 C.ar    1  UNL1        0.0128
     22 C          64.9921   95.5732   -4.6322 C.ar    1  UNL1        0.0578
     23 CL         65.8117   96.0174   -5.8073 Cl      1  UNL1       -0.0822
     24 C          63.9175   94.5426   -4.8140 C.ar    1  UNL1        0.0128
     25 C          63.0979   94.0983   -3.6389 C.ar    1  UNL1        0.0208
     26 C          64.6805   94.3509    1.8866 C.3     1  UNL1        0.0015
     27 C          63.8875   93.1932    1.3566 C.3     1  UNL1        0.0177
@<TRIPOS>BOND
     1    26    27    1
     2     1    27    1
     3     1     2    1
     4     2     3    1
     5     3     4    1
     6     4     5    1
     7     5     7    1
     8     7    10    1
     9    10    11    1
    10    11    12   ar
    11    12    13   ar
    12    13    14   ar
    13    14    15   ar
    14     7     8    1
    15     8     9    1
    16     5     6    1
    17     6    16    1
    18    16    17    2
    19    16    18    2
    20    16    19    1
    21    19    20   ar
    22    20    21   ar
    23    21    22   ar
    24    22    23    1
    25    22    24   ar
    26    24    25   ar
    27     6     1    1
    28    25    19   ar
    29     9     7    1
    30    15    11   ar
@<TRIPOS>MOLECULE
*****
 27 30 0 0 0
SMALL
GASTEIGER

@<TRIPOS>ATOM
      1 C          70.2179   70.6187   12.6646 C.3     1  UNL1        0.0795
      2 C          69.9764   69.1411   12.7555 C.3     1  UNL1        0.0178
      3 C          70.4819   68.3699   13.9386 C.3     1  UNL1        0.0029
      4 C          71.2289   69.0762   15.0308 C.3     1  UNL1        0.0178
      5 C          71.4704   70.5538   14.9399 C.3     1  UNL1        0.0799
      6 N          70.9649   71.3251   13.7568 N.3     1  UNL1       -0.1583
      7 C          72.2174   71.2603   16.0321 C.3     1  UNL1        0.0239
      8 C          73.3514   71.8923   16.7836 C.3     1  UNL1        0.0019
      9 C          73.5911   71.2914   15.4303 C.3     1  UNL1        0.0019
     10 C          71.1032   71.4745   17.0132 C.3     1  UNL1        0.0866
     11 C          71.3283   72.3217   18.2305 C.ar    1  UNL1        0.2059
     12 N          70.5875   73.5786   18.5793 N.ar    1  UNL1       -0.2103
     13 C          71.1350   74.0944   19.8770 C.ar    1  UNL1        0.1424
     14 C          72.2142   73.1563   20.3303 C.ar    1  UNL1        0.2018
     15 O          72.3336   72.0607   19.3127 O.2     1  UNL1       -0.4352
     16 S          71.2065   72.8028   13.6659 S.O2    1  UNL1        0.0632
     17 O          69.9394   73.0567   14.4275 O.2     1  UNL1       -0.1528
     18 O          72.3656   72.9028   12.9811 O.2     1  UNL1       -0.1528
     19 C          71.4480   74.2804   13.5751 C.ar    1  UNL1        0.1222
     20 C          71.9017   74.8881   12.2809 C.ar    1  UNL1        0.0208
     21 C          72.1432   76.3657   12.1901 C.ar    1  UNL1        0.0128
     22 C          71.9311   77.2357   13.3934 C.ar    1  UNL1        0.0578
     23 CL         72.1726   78.7133   13.3026 Cl      1  UNL1       -0.0822
     24 C          71.4774   76.6281   14.6876 C.ar    1  UNL1        0.0128
     25 C          71.2358   75.1504   14.7785 C.ar    1  UNL1        0.0208
     26 C          70.1163   70.9858   10.0946 C.3     1  UNL1        0.0015
     27 C          69.7125   71.3899   11.4815 C.3     1  UNL1        0.0177
@<TRIPOS>BOND
     1    26    27    1
     2     1    27    1
     3     1     2    1
     4     2     3    1
     5     3     4    1
     6     4     5    1
     7     5     7    1
     8     7    10    1
     9    10    11    1
    10    11    12   ar
    11    12    13   ar
    12    13    14   ar
    13    14    15   ar
    14     7     8    1
    15     8     9    1
    16     5     6    1
    17     6    16    1
    18    16    17    2
    19    16    18    2
    20    16    19    1
    21    19    20   ar
    22    20    21   ar
    23    21    22   ar
    24    22    23    1
    25    22    24   ar
    26    24    25   ar
    27     6     1    1
    28    25    19   ar
    29     9     7    1
    30    15    11   ar
@<TRIPOS>MOLECULE
*****
 27 30 0 0 0
SMALL
GASTEIGER

@<TRIPOS>ATOM
      1 C          64.0459   87.5050   13.8380 C.3     1  UNL1        0.0795
      2 C          64.2513   88.9900   13.7901 C.3     1  UNL1        0.0178
      3 C          63.5994   89.8030   12.7111 C.3     1  UNL1        0.0029
      4 C          62.7421   89.1309   11.6800 C.3     1  UNL1        0.0178
      5 C          62.5367   87.6458   11.7279 C.3     1  UNL1        0.0799
      6 N          63.1886   86.8329   12.8069 N.3     1  UNL1       -0.1583
      7 C          61.6793   86.9736   10.6968 C.3     1  UNL1        0.0239
      8 C          60.4529   86.5143    9.9654 C.3     1  UNL1        0.0019
      9 C          60.3187   87.3532   11.2016 C.3     1  UNL1        0.0019
     10 C          62.7421   86.3605    9.8340 C.3     1  UNL1        0.0866
     11 C          62.3739   85.7346    8.5214 C.ar    1  UNL1        0.2059
     12 N          63.1993   84.7442    7.7545 N.ar    1  UNL1       -0.2103
     13 C          62.4513   84.3866    6.5046 C.ar    1  UNL1        0.1424
     14 C          61.1636   85.1559    6.4989 C.ar    1  UNL1        0.2018
     15 O          61.1158   85.9890    7.7454 O.2     1  UNL1       -0.4352
     16 S          62.9831   85.3477   12.8547 S.O2    1  UNL1        0.0632
     17 O          64.3066   85.1429   12.1792 O.2     1  UNL1       -0.1528
     18 O          61.7826   85.2032   13.4551 O.2     1  UNL1       -0.1528
     19 C          62.7777   83.8626   12.9025 C.ar    1  UNL1        0.1222
     20 C          62.4165   83.1967   14.1973 C.ar    1  UNL1        0.0208
     21 C          62.2111   81.7117   14.2451 C.ar    1  UNL1        0.0128
     22 C          62.3668   80.8924   12.9982 C.ar    1  UNL1        0.0578
     23 CL         62.1614   79.4074   13.0460 Cl      1  UNL1       -0.0822
     24 C          62.7280   81.5583   11.7036 C.ar    1  UNL1        0.0128
     25 C          62.9334   83.0434   11.6557 C.ar    1  UNL1        0.0208
     26 C          63.8894   86.2102   16.0849 C.3     1  UNL1        0.0015
     27 C          64.6978   86.6920   14.9169 C.3     1  UNL1        0.0177
@<TRIPOS>BOND
     1    26    27    1
     2     1    27    1
     3     1     2    1
     4     2     3    1
     5     3     4    1
     6     4     5    1
     7     5     7    1
     8     7    10    1
     9    10    11    1
    10    11    12   ar
    11    12    13   ar
    12    13    14   ar
    13    14    15   ar
    14     7     8    1
    15     8     9    1
    16     5     6    1
    17     6    16    1
    18    16    17    2
    19    16    18    2
    20    16    19    1
    21    19    20   ar
    22    20    21   ar
    23    21    22   ar
    24    22    23    1
    25    22    24   ar
    26    24    25   ar
    27     6     1    1
    28    25    19   ar
    29     9     7    1
    30    15    11   ar
