@<TRIPOS>MOLECULE
*****
 26 29 0 0 0
SMALL
GASTEIGER

@<TRIPOS>ATOM
      1 C          65.2407   91.6667   13.7944 C.ar    1  UNL1        0.0504
      2 C          64.9041   91.3907   15.2299 C.ar    1  UNL1        0.0441
      3 C          63.7945   90.4406   15.5707 C.ar    1  UNL1        0.1414
      4 F          63.4579   90.1646   17.0062 F       1  UNL1       -0.2041
      5 C          63.0215   89.7666   14.4761 C.ar    1  UNL1        0.0317
      6 C          63.3581   90.0426   13.0407 C.ar    1  UNL1        0.0273
      7 C          64.4677   90.9926   12.6998 C.ar    1  UNL1        0.0167
      8 C          62.5851   89.3685   11.9461 C.ar    1  UNL1        0.1108
      9 N          62.5083   87.8905   11.7022 N.ar    1  UNL1       -0.2383
     10 C          61.6290   87.6626   10.5086 C.ar    1  UNL1        0.0878
     11 C          61.1929   86.4102    9.8076 C.ar    1  UNL1        0.0196
     12 C          60.2901   86.4951    8.6128 C.ar    1  UNL1        0.0016
     13 C          59.8234   87.8324    8.1189 C.ar    1  UNL1        0.0006
     14 C          60.2594   89.0847    8.8199 C.ar    1  UNL1        0.0080
     15 C          61.1622   88.9998   10.0147 C.ar    1  UNL1        0.0485
     16 S          61.7532   90.0541   10.9031 S.2     1  UNL1       -0.0665
     17 N          66.3503   92.6167   13.4535 N.pl3   1  UNL1       -0.3023
     18 C          67.8561   93.4789   15.3873 C.3     1  UNL1        0.0232
     19 C          67.6411   92.5669   14.2159 C.3     1  UNL1        0.0912
     20 C          66.1690   93.6167   12.3502 C.3     1  UNL1        0.1366
     21 C          66.9333   93.4660   11.0684 C.ar    1  UNL1        0.0745
     22 C          66.9268   94.4303    9.9194 C.ar    1  UNL1        0.1148
     23 N          67.8277   93.8848    8.8514 N.ar    1  UNL1       -0.2228
     24 C          68.3910   92.5833    9.3403 C.ar    1  UNL1        0.1748
     25 N          67.8382   92.3245   10.7104 N.ar    1  UNL1       -0.3369
     26 H          68.0348   91.5427   11.2756 H       1  UNL1        0.1672
@<TRIPOS>BOND
     1    18    19    1
     2    19    17    1
     3    17    20    1
     4    20    21    1
     5    21    22   ar
     6    22    23   ar
     7    23    24   ar
     8    24    25   ar
     9    17     1    1
    10     1     2   ar
    11     2     3   ar
    12     3     4    1
    13     3     5   ar
    14     5     6   ar
    15     6     8    1
    16     8     9   ar
    17     9    10   ar
    18    10    11   ar
    19    11    12   ar
    20    12    13   ar
    21    13    14   ar
    22    14    15   ar
    23    15    16   ar
    24     6     7   ar
    25    25    21   ar
    26     7     1   ar
    27    16     8   ar
    28    15    10   ar
    29    25    26    1
@<TRIPOS>MOLECULE
*****
 26 29 0 0 0
SMALL
GASTEIGER

@<TRIPOS>ATOM
      1 C          63.5696   89.3719   12.6960 C.ar    1  UNL1        0.0504
      2 C          62.8877   89.9391   11.4864 C.ar    1  UNL1        0.0441
      3 C          62.1582   89.0307   10.5417 C.ar    1  UNL1        0.1414
      4 F          61.4762   89.5979    9.3320 F       1  UNL1       -0.2041
      5 C          62.1106   87.5550   10.8066 C.ar    1  UNL1        0.0317
      6 C          62.7925   86.9878   12.0162 C.ar    1  UNL1        0.0273
      7 C          63.5220   87.8962   12.9609 C.ar    1  UNL1        0.0167
      8 C          62.7449   85.5121   12.2811 C.ar    1  UNL1        0.1108
      9 N          62.4788   84.8624   13.6067 N.ar    1  UNL1       -0.2383
     10 C          62.5244   83.3758   13.4118 C.ar    1  UNL1        0.0878
     11 C          62.3361   82.2324   14.3642 C.ar    1  UNL1        0.0196
     12 C          62.4420   80.8200   13.8706 C.ar    1  UNL1        0.0016
     13 C          62.7363   80.5509   12.4246 C.ar    1  UNL1        0.0006
     14 C          62.9246   81.6943   11.4721 C.ar    1  UNL1        0.0080
     15 C          62.8187   83.1067   11.9657 C.ar    1  UNL1        0.0485
     16 S          62.9549   84.4270   11.2670 S.2     1  UNL1       -0.0665
     17 N          64.2992   90.2803   13.6408 N.pl3   1  UNL1       -0.3023
     18 C          63.3618   90.0087   16.0486 C.3     1  UNL1        0.0232
     19 C          64.4925   89.8750   15.0720 C.3     1  UNL1        0.0912
     20 C          64.8354   91.5940   13.1543 C.3     1  UNL1        0.1366
     21 C          66.0585   92.1862   13.7893 C.ar    1  UNL1        0.0745
     22 C          67.4766   91.9495   13.3615 C.ar    1  UNL1        0.1148
     23 N          68.3728   92.7362   14.2714 N.ar    1  UNL1       -0.2228
     24 C          67.5085   93.4592   15.2616 C.ar    1  UNL1        0.1748
     25 N          66.0783   93.1193   14.9636 N.ar    1  UNL1       -0.3369
     26 H          65.2907   93.4505   15.4529 H       1  UNL1        0.1672
@<TRIPOS>BOND
     1    18    19    1
     2    19    17    1
     3    17    20    1
     4    20    21    1
     5    21    22   ar
     6    22    23   ar
     7    23    24   ar
     8    24    25   ar
     9    17     1    1
    10     1     2   ar
    11     2     3   ar
    12     3     4    1
    13     3     5   ar
    14     5     6   ar
    15     6     8    1
    16     8     9   ar
    17     9    10   ar
    18    10    11   ar
    19    11    12   ar
    20    12    13   ar
    21    13    14   ar
    22    14    15   ar
    23    15    16   ar
    24     6     7   ar
    25    25    21   ar
    26     7     1   ar
    27    16     8   ar
    28    15    10   ar
    29    25    26    1
@<TRIPOS>MOLECULE
*****
 26 29 0 0 0
SMALL
GASTEIGER

@<TRIPOS>ATOM
      1 C          63.1157   89.3776   11.9678 C.ar    1  UNL1        0.0504
      2 C          62.3459   89.7856   10.7468 C.ar    1  UNL1        0.0441
      3 C          61.6403   88.7489    9.9240 C.ar    1  UNL1        0.1414
      4 F          60.8705   89.1569    8.7028 F       1  UNL1       -0.2041
      5 C          61.7044   87.3041   10.3221 C.ar    1  UNL1        0.0317
      6 C          62.4741   86.8961   11.5431 C.ar    1  UNL1        0.0273
      7 C          63.1798   87.9328   12.3660 C.ar    1  UNL1        0.0167
      8 C          62.5382   85.4513   11.9413 C.ar    1  UNL1        0.1108
      9 N          62.3509   84.9096   13.3275 N.ar    1  UNL1       -0.2383
     10 C          62.4978   83.4181   13.2661 C.ar    1  UNL1        0.0878
     11 C          62.4143   82.3570   14.3230 C.ar    1  UNL1        0.0196
     12 C          62.6088   80.9158   13.9557 C.ar    1  UNL1        0.0016
     13 C          62.8869   80.5356   12.5316 C.ar    1  UNL1        0.0006
     14 C          62.9705   81.5967   11.4747 C.ar    1  UNL1        0.0080
     15 C          62.7759   83.0379   11.8420 C.ar    1  UNL1        0.0485
     16 S          62.8009   84.2946   11.0232 S.2     1  UNL1       -0.0665
     17 N          63.8214   90.4144   12.7908 N.pl3   1  UNL1       -0.3023
     18 C          64.0979   90.7476   15.3525 C.3     1  UNL1        0.0232
     19 C          64.4677   90.0295   14.0885 C.3     1  UNL1        0.0912
     20 C          63.8807   91.8360   12.3159 C.3     1  UNL1        0.1366
     21 C          65.1351   92.3644   11.6856 C.ar    1  UNL1        0.0745
     22 C          66.4919   92.4076   12.3237 C.ar    1  UNL1        0.1148
     23 N          67.4483   93.0123   11.3390 N.ar    1  UNL1       -0.2228
     24 C          66.6824   93.3429   10.0923 C.ar    1  UNL1        0.1748
     25 N          65.2529   92.9425   10.3065 N.ar    1  UNL1       -0.3369
     26 H          64.5204   93.0417    9.6561 H       1  UNL1        0.1672
@<TRIPOS>BOND
     1    18    19    1
     2    19    17    1
     3    17    20    1
     4    20    21    1
     5    21    22   ar
     6    22    23   ar
     7    23    24   ar
     8    24    25   ar
     9    17     1    1
    10     1     2   ar
    11     2     3   ar
    12     3     4    1
    13     3     5   ar
    14     5     6   ar
    15     6     8    1
    16     8     9   ar
    17     9    10   ar
    18    10    11   ar
    19    11    12   ar
    20    12    13   ar
    21    13    14   ar
    22    14    15   ar
    23    15    16   ar
    24     6     7   ar
    25    25    21   ar
    26     7     1   ar
    27    16     8   ar
    28    15    10   ar
    29    25    26    1
@<TRIPOS>MOLECULE
*****
 26 29 0 0 0
SMALL
GASTEIGER

@<TRIPOS>ATOM
      1 C          63.1841   89.6016   11.8872 C.ar    1  UNL1        0.0504
      2 C          62.3571   90.0046   10.7025 C.ar    1  UNL1        0.0441
      3 C          61.5967   88.9671    9.9309 C.ar    1  UNL1        0.1414
      4 F          60.7696   89.3700    8.7461 F       1  UNL1       -0.2041
      5 C          61.6633   87.5267   10.3441 C.ar    1  UNL1        0.0317
      6 C          62.4903   87.1237   11.5288 C.ar    1  UNL1        0.0273
      7 C          63.2507   88.1612   12.3004 C.ar    1  UNL1        0.0167
      8 C          62.5569   85.6833   11.9419 C.ar    1  UNL1        0.1108
      9 N          62.4381   85.1615   13.3432 N.ar    1  UNL1       -0.2383
     10 C          62.5618   83.6675   13.2937 C.ar    1  UNL1        0.0878
     11 C          62.5218   82.6209   14.3675 C.ar    1  UNL1        0.0196
     12 C          62.6772   81.1726   14.0093 C.ar    1  UNL1        0.0016
     13 C          62.8725   80.7709   12.5773 C.ar    1  UNL1        0.0006
     14 C          62.9125   81.8175   11.5035 C.ar    1  UNL1        0.0080
     15 C          62.7571   83.2658   11.8617 C.ar    1  UNL1        0.0485
     16 S          62.7541   84.5116   11.0263 S.2     1  UNL1       -0.0665
     17 N          63.9445   90.6392   12.6589 N.pl3   1  UNL1       -0.3023
     18 C          65.2462   92.2415   11.0816 C.3     1  UNL1        0.0232
     19 C          64.1490   92.0064   12.0770 C.3     1  UNL1        0.0912
     20 C          64.5004   90.3093   14.0125 C.3     1  UNL1        0.1366
     21 C          65.5447   91.1916   14.6297 C.ar    1  UNL1        0.0745
     22 C          65.3436   92.1117   15.7972 C.ar    1  UNL1        0.1148
     23 N          66.6480   92.7974   16.0770 N.ar    1  UNL1       -0.2228
     24 C          67.6553   92.3011   15.0823 C.ar    1  UNL1        0.1748
     25 N          66.9733   91.3086   14.1879 N.ar    1  UNL1       -0.3369
     26 H          67.3902   90.8199   13.4419 H       1  UNL1        0.1672
@<TRIPOS>BOND
     1    18    19    1
     2    19    17    1
     3    17    20    1
     4    20    21    1
     5    21    22   ar
     6    22    23   ar
     7    23    24   ar
     8    24    25   ar
     9    17     1    1
    10     1     2   ar
    11     2     3   ar
    12     3     4    1
    13     3     5   ar
    14     5     6   ar
    15     6     8    1
    16     8     9   ar
    17     9    10   ar
    18    10    11   ar
    19    11    12   ar
    20    12    13   ar
    21    13    14   ar
    22    14    15   ar
    23    15    16   ar
    24     6     7   ar
    25    25    21   ar
    26     7     1   ar
    27    16     8   ar
    28    15    10   ar
    29    25    26    1
@<TRIPOS>MOLECULE
*****
 26 29 0 0 0
SMALL
GASTEIGER

@<TRIPOS>ATOM
      1 C          63.7179   86.0149   14.8570 C.ar    1  UNL1        0.0504
      2 C          63.2638   86.1056   16.2837 C.ar    1  UNL1        0.0441
      3 C          63.2248   87.4361   16.9751 C.ar    1  UNL1        0.1414
      4 F          62.7706   87.5268   18.4019 F       1  UNL1       -0.2041
      5 C          63.6398   88.6759   16.2399 C.ar    1  UNL1        0.0317
      6 C          64.0939   88.5852   14.8132 C.ar    1  UNL1        0.0273
      7 C          64.1330   87.2547   14.1217 C.ar    1  UNL1        0.0167
      8 C          64.5089   89.8250   14.0779 C.ar    1  UNL1        0.1108
      9 N          64.0963   90.2048   12.6867 N.ar    1  UNL1       -0.2383
     10 C          64.7418   91.5173   12.3537 C.ar    1  UNL1        0.0878
     11 C          64.6955   92.3753   11.1243 C.ar    1  UNL1        0.0196
     12 C          65.4606   93.6646   11.0803 C.ar    1  UNL1        0.0016
     13 C          66.2722   94.0960   12.2657 C.ar    1  UNL1        0.0006
     14 C          66.3186   93.2380   13.4952 C.ar    1  UNL1        0.0080
     15 C          65.5534   91.9486   13.5392 C.ar    1  UNL1        0.0485
     16 S          65.4094   90.9028   14.6048 S.2     1  UNL1       -0.0665
     17 N          63.7570   84.6843   14.1655 N.pl3   1  UNL1       -0.3023
     18 C          62.5713   84.8067   11.8569 C.3     1  UNL1        0.0232
     19 C          63.8190   84.6187   12.6682 C.3     1  UNL1        0.0912
     20 C          63.7342   83.4193   14.9713 C.3     1  UNL1        0.1366
     21 C          63.0093   82.2128   14.4528 C.ar    1  UNL1        0.0745
     22 C          63.6135   81.0979   13.6516 C.ar    1  UNL1        0.1148
     23 N          62.5306   80.1054   13.3481 N.ar    1  UNL1       -0.2228
     24 C          61.2570   80.6069   13.9618 C.ar    1  UNL1        0.1748
     25 N          61.5529   81.9093   14.6446 N.ar    1  UNL1       -0.3369
     26 H          60.9050   82.4671   15.1328 H       1  UNL1        0.1672
@<TRIPOS>BOND
     1    18    19    1
     2    19    17    1
     3    17    20    1
     4    20    21    1
     5    21    22   ar
     6    22    23   ar
     7    23    24   ar
     8    24    25   ar
     9    17     1    1
    10     1     2   ar
    11     2     3   ar
    12     3     4    1
    13     3     5   ar
    14     5     6   ar
    15     6     8    1
    16     8     9   ar
    17     9    10   ar
    18    10    11   ar
    19    11    12   ar
    20    12    13   ar
    21    13    14   ar
    22    14    15   ar
    23    15    16   ar
    24     6     7   ar
    25    25    21   ar
    26     7     1   ar
    27    16     8   ar
    28    15    10   ar
    29    25    26    1
@<TRIPOS>MOLECULE
*****
 26 29 0 0 0
SMALL
GASTEIGER

@<TRIPOS>ATOM
      1 C          62.0091   87.2112   10.7566 C.ar    1  UNL1        0.0504
      2 C          60.9313   87.8010    9.8962 C.ar    1  UNL1        0.0441
      3 C          60.7697   89.2898    9.8119 C.ar    1  UNL1        0.1414
      4 F          59.6918   89.8797    8.9514 F       1  UNL1       -0.2041
      5 C          61.6858   90.1888   10.5880 C.ar    1  UNL1        0.0317
      6 C          62.7636   89.5990   11.4485 C.ar    1  UNL1        0.0273
      7 C          62.9253   88.1102   11.5328 C.ar    1  UNL1        0.0167
      8 C          63.6798   90.4981   12.2246 C.ar    1  UNL1        0.1108
      9 N          64.4212   91.6831   11.6807 N.ar    1  UNL1       -0.2383
     10 C          65.2150   92.2874   12.8009 C.ar    1  UNL1        0.0878
     11 C          66.1338   93.4718   12.8549 C.ar    1  UNL1        0.0196
     12 C          66.8018   93.8445   14.1452 C.ar    1  UNL1        0.0016
     13 C          66.5509   93.0329   15.3815 C.ar    1  UNL1        0.0006
     14 C          65.6321   91.8485   15.3274 C.ar    1  UNL1        0.0080
     15 C          64.9641   91.4758   14.0372 C.ar    1  UNL1        0.0485
     16 S          64.0153   90.3699   13.6810 S.2     1  UNL1       -0.0665
     17 N          62.1709   85.7222   10.8409 N.pl3   1  UNL1       -0.3023
     18 C          63.1647   85.5720    8.4451 C.3     1  UNL1        0.0232
     19 C          62.4596   84.9278    9.6018 C.3     1  UNL1        0.0912
     20 C          62.0439   85.0278   12.1644 C.3     1  UNL1        0.1366
     21 C          63.2104   84.9901   13.1066 C.ar    1  UNL1        0.0745
     22 C          64.2995   83.9587   13.1207 C.ar    1  UNL1        0.1148
     23 N          65.2548   84.3084   14.2229 N.ar    1  UNL1       -0.2228
     24 C          64.7562   85.5559   14.8901 C.ar    1  UNL1        0.1748
     25 N          63.4927   85.9772   14.2002 N.ar    1  UNL1       -0.3369
     26 H          62.9449   86.7636   14.4256 H       1  UNL1        0.1672
@<TRIPOS>BOND
     1    18    19    1
     2    19    17    1
     3    17    20    1
     4    20    21    1
     5    21    22   ar
     6    22    23   ar
     7    23    24   ar
     8    24    25   ar
     9    17     1    1
    10     1     2   ar
    11     2     3   ar
    12     3     4    1
    13     3     5   ar
    14     5     6   ar
    15     6     8    1
    16     8     9   ar
    17     9    10   ar
    18    10    11   ar
    19    11    12   ar
    20    12    13   ar
    21    13    14   ar
    22    14    15   ar
    23    15    16   ar
    24     6     7   ar
    25    25    21   ar
    26     7     1   ar
    27    16     8   ar
    28    15    10   ar
    29    25    26    1
@<TRIPOS>MOLECULE
*****
 26 29 0 0 0
SMALL
GASTEIGER

@<TRIPOS>ATOM
      1 C          63.6091   85.6965   15.4077 C.ar    1  UNL1        0.0504
      2 C          63.1419   85.8999   16.8185 C.ar    1  UNL1        0.0441
      3 C          63.0579   87.2849   17.3883 C.ar    1  UNL1        0.1414
      4 F          62.5907   87.4884   18.7992 F       1  UNL1       -0.2041
      5 C          63.4411   88.4664   16.5474 C.ar    1  UNL1        0.0317
      6 C          63.9082   88.2630   15.1366 C.ar    1  UNL1        0.0273
      7 C          63.9922   86.8780   14.5668 C.ar    1  UNL1        0.0167
      8 C          64.2914   89.4445   14.2956 C.ar    1  UNL1        0.1108
      9 N          65.2806   90.5086   14.6687 N.ar    1  UNL1       -0.2383
     10 C          65.3532   91.4911   13.5376 C.ar    1  UNL1        0.0878
     11 C          66.1572   92.7427   13.3454 C.ar    1  UNL1        0.0196
     12 C          66.0169   93.5375   12.0811 C.ar    1  UNL1        0.0016
     13 C          65.0725   93.0807   11.0090 C.ar    1  UNL1        0.0006
     14 C          64.2685   91.8291   11.2012 C.ar    1  UNL1        0.0080
     15 C          64.4088   91.0343   12.4655 C.ar    1  UNL1        0.0485
     16 S          63.7526   89.7694   12.9340 S.2     1  UNL1       -0.0665
     17 N          63.6931   84.3114   14.8378 N.pl3   1  UNL1       -0.3023
     18 C          62.1893   82.2305   14.4400 C.3     1  UNL1        0.0232
     19 C          62.8110   83.2242   15.3760 C.3     1  UNL1        0.0912
     20 C          64.6592   84.0138   13.7297 C.3     1  UNL1        0.1366
     21 C          64.1719   83.9231   12.3140 C.ar    1  UNL1        0.0745
     22 C          64.5574   82.8732   11.3143 C.ar    1  UNL1        0.1148
     23 N          63.8373   83.1676   10.0318 N.ar    1  UNL1       -0.2228
     24 C          63.0067   84.3994   10.2389 C.ar    1  UNL1        0.1748
     25 N          63.2135   84.8663   11.6493 N.ar    1  UNL1       -0.3369
     26 H          62.7938   85.6535   12.0657 H       1  UNL1        0.1672
@<TRIPOS>BOND
     1    18    19    1
     2    19    17    1
     3    17    20    1
     4    20    21    1
     5    21    22   ar
     6    22    23   ar
     7    23    24   ar
     8    24    25   ar
     9    17     1    1
    10     1     2   ar
    11     2     3   ar
    12     3     4    1
    13     3     5   ar
    14     5     6   ar
    15     6     8    1
    16     8     9   ar
    17     9    10   ar
    18    10    11   ar
    19    11    12   ar
    20    12    13   ar
    21    13    14   ar
    22    14    15   ar
    23    15    16   ar
    24     6     7   ar
    25    25    21   ar
    26     7     1   ar
    27    16     8   ar
    28    15    10   ar
    29    25    26    1
@<TRIPOS>MOLECULE
*****
 26 29 0 0 0
SMALL
GASTEIGER

@<TRIPOS>ATOM
      1 C          63.9771   86.6151   14.3980 C.ar    1  UNL1        0.0504
      2 C          64.6319   87.8920   14.8347 C.ar    1  UNL1        0.0441
      3 C          64.4275   89.1488   14.0419 C.ar    1  UNL1        0.1414
      4 F          65.0823   90.4258   14.4786 F       1  UNL1       -0.2041
      5 C          63.5683   89.1288   12.8126 C.ar    1  UNL1        0.0317
      6 C          62.9135   87.8519   12.3759 C.ar    1  UNL1        0.0273
      7 C          63.1179   86.5950   13.1686 C.ar    1  UNL1        0.0167
      8 C          62.0543   87.8319   11.1465 C.ar    1  UNL1        0.1108
      9 N          61.5305   89.0335   10.4172 N.ar    1  UNL1       -0.2383
     10 C          60.7205   88.5510    9.2505 C.ar    1  UNL1        0.0878
     11 C          59.9649   89.2835    8.1818 C.ar    1  UNL1        0.0196
     12 C          59.2324   88.5163    7.1213 C.ar    1  UNL1        0.0016
     13 C          59.2555   87.0165    7.1296 C.ar    1  UNL1        0.0006
     14 C          60.0111   86.2839    8.1983 C.ar    1  UNL1        0.0080
     15 C          60.7436   87.0512    9.2588 C.ar    1  UNL1        0.0485
     16 S          61.5679   86.6068   10.4306 S.2     1  UNL1       -0.0665
     17 N          64.1815   85.3581   15.1907 N.pl3   1  UNL1       -0.3023
     18 C          62.6842   86.0496   17.1982 C.3     1  UNL1        0.0232
     19 C          63.8956   85.3452   16.6631 C.3     1  UNL1        0.0912
     20 C          64.6717   84.1141   14.5109 C.3     1  UNL1        0.1366
     21 C          63.7014   83.0356   14.1299 C.ar    1  UNL1        0.0745
     22 C          63.6568   82.3137   12.8157 C.ar    1  UNL1        0.1148
     23 N          62.5331   81.3215   12.8697 N.ar    1  UNL1       -0.2228
     24 C          61.8832   81.4303   14.2173 C.ar    1  UNL1        0.1748
     25 N          62.6052   82.4896   14.9961 N.ar    1  UNL1       -0.3369
     26 H          62.3963   82.7762   15.9145 H       1  UNL1        0.1672
@<TRIPOS>BOND
     1    18    19    1
     2    19    17    1
     3    17    20    1
     4    20    21    1
     5    21    22   ar
     6    22    23   ar
     7    23    24   ar
     8    24    25   ar
     9    17     1    1
    10     1     2   ar
    11     2     3   ar
    12     3     4    1
    13     3     5   ar
    14     5     6   ar
    15     6     8    1
    16     8     9   ar
    17     9    10   ar
    18    10    11   ar
    19    11    12   ar
    20    12    13   ar
    21    13    14   ar
    22    14    15   ar
    23    15    16   ar
    24     6     7   ar
    25    25    21   ar
    26     7     1   ar
    27    16     8   ar
    28    15    10   ar
    29    25    26    1
@<TRIPOS>MOLECULE
*****
 26 29 0 0 0
SMALL
GASTEIGER

@<TRIPOS>ATOM
      1 C          63.3525   83.7724   12.8371 C.ar    1  UNL1        0.0504
      2 C          64.1891   82.8026   12.0563 C.ar    1  UNL1        0.0441
      3 C          64.2372   82.8891   10.5596 C.ar    1  UNL1        0.1414
      4 F          65.0738   81.9193    9.7787 F       1  UNL1       -0.2041
      5 C          63.4487   83.9454    9.8437 C.ar    1  UNL1        0.0317
      6 C          62.6122   84.9152   10.6244 C.ar    1  UNL1        0.0273
      7 C          62.5641   84.8286   12.1211 C.ar    1  UNL1        0.0167
      8 C          61.8237   85.9715    9.9085 C.ar    1  UNL1        0.1108
      9 N          60.8664   85.7419    8.7768 N.ar    1  UNL1       -0.2383
     10 C          60.3051   87.0714    8.3674 C.ar    1  UNL1        0.0878
     11 C          59.3171   87.4605    7.3080 C.ar    1  UNL1        0.0196
     12 C          58.9395   88.9009    7.1274 C.ar    1  UNL1        0.0016
     13 C          59.5499   89.9521    8.0062 C.ar    1  UNL1        0.0006
     14 C          60.5379   89.5630    9.0656 C.ar    1  UNL1        0.0080
     15 C          60.9155   88.1226    9.2462 C.ar    1  UNL1        0.0485
     16 S          61.8540   87.4428   10.1986 S.2     1  UNL1       -0.0665
     17 N          63.3044   83.6859   14.3339 N.pl3   1  UNL1       -0.3023
     18 C          61.7670   81.5918   14.2925 C.3     1  UNL1        0.0232
     19 C          62.2903   82.8055   15.0020 C.3     1  UNL1        0.0912
     20 C          64.2704   84.4798   15.1624 C.3     1  UNL1        0.1366
     21 C          63.9584   85.9025   15.5208 C.ar    1  UNL1        0.0745
     22 C          64.3644   87.1176   14.7407 C.ar    1  UNL1        0.1148
     23 N          63.8424   88.3260   15.4600 N.ar    1  UNL1       -0.2228
     24 C          63.1138   87.8576   16.6847 C.ar    1  UNL1        0.1748
     25 N          63.1855   86.3598   16.7222 N.ar    1  UNL1       -0.3369
     26 H          62.7939   85.7789   17.4140 H       1  UNL1        0.1672
@<TRIPOS>BOND
     1    18    19    1
     2    19    17    1
     3    17    20    1
     4    20    21    1
     5    21    22   ar
     6    22    23   ar
     7    23    24   ar
     8    24    25   ar
     9    17     1    1
    10     1     2   ar
    11     2     3   ar
    12     3     4    1
    13     3     5   ar
    14     5     6   ar
    15     6     8    1
    16     8     9   ar
    17     9    10   ar
    18    10    11   ar
    19    11    12   ar
    20    12    13   ar
    21    13    14   ar
    22    14    15   ar
    23    15    16   ar
    24     6     7   ar
    25    25    21   ar
    26     7     1   ar
    27    16     8   ar
    28    15    10   ar
    29    25    26    1
