@<TRIPOS>MOLECULE
*****
 40 43 0 0 0
SMALL
GASTEIGER

@<TRIPOS>ATOM
      1 N          63.5880   86.8134   15.8320 N.am    1  UNL1       -0.2839
      2 C          62.9770   87.5517   16.9858 C.2     1  UNL1        0.2239
      3 O          62.2412   86.7978   18.0536 O.2     1  UNL1       -0.2751
      4 H          64.0710   87.3082   15.1312 H       1  UNL1        0.1512
      5 C          63.4633   85.3211   15.7460 C.3     1  UNL1        0.2237
      6 C          62.9070   84.8325   11.8470 C.ar    1  UNL1        0.0901
      7 N          63.0894   85.4941   13.1807 N.ar    1  UNL1       -0.1691
      8 N          63.2809   84.6593   14.4122 N.ar    1  UNL1       -0.1960
      9 C          63.2900   83.1629   14.3099 C.ar    1  UNL1        0.2779
     10 O          63.4815   82.3281   15.5413 O.2     1  UNL1       -0.2655
     11 C          63.1076   82.5011   12.9761 C.ar    1  UNL1        0.0610
     12 C          63.1168   81.0047   12.8738 C.ar    1  UNL1        0.0345
     13 C          62.9344   80.3430   11.5400 C.ar    1  UNL1        0.1403
     14 F          62.9435   78.8465   11.4377 F       1  UNL1       -0.2042
     15 C          62.7429   81.1778   10.3086 C.ar    1  UNL1        0.0297
     16 C          62.7337   82.6743   10.4109 C.ar    1  UNL1        0.0037
     17 C          62.9161   83.3359   11.7446 C.ar    1  UNL1        0.0206
     18 C          62.7155   85.6673   10.6156 C.3     1  UNL1        0.1569
     19 C          61.4031   86.3508   10.3694 C.2     1  UNL1        0.3231
     20 O          60.5857   85.9931    9.1636 O.2     1  UNL1       -0.2497
     21 O          60.9082   87.3919   11.3291 O.3     1  UNL1       -0.4482
     22 C          62.1840   89.5280   10.5813 C.3     1  UNL1        0.0513
     23 C          60.8985   88.8374   10.9282 C.3     1  UNL1        0.2086
     24 C          63.1017   89.0441   17.0719 C.3     1  UNL1        0.0865
     25 C          63.2551   89.8573   15.8209 C.3     1  UNL1        0.0269
     26 C          64.0356   91.1379   15.8498 C.3     1  UNL1        0.0727
     27 N          64.7489   91.6095   14.6174 N.3     1  UNL1       -0.2698
     28 C          64.1245   91.4127   13.2678 C.3     1  UNL1        0.0938
     29 C          64.8378   91.8843   12.0354 C.3     1  UNL1        0.1081
     30 N          66.1755   92.5528   12.1525 N.pl3   1  UNL1       -0.3049
     31 C          66.7999   92.7496   13.5022 C.3     1  UNL1        0.1081
     32 C          66.0866   92.2780   14.7345 C.3     1  UNL1        0.0938
     33 C          66.8887   93.0244   10.9202 C.ar    1  UNL1        0.0436
     34 C          67.7554   92.0760   10.1460 C.ar    1  UNL1        0.0142
     35 C          68.4687   92.5476    8.9136 C.ar    1  UNL1        0.0009
     36 C          68.3153   93.9676    8.4554 C.ar    1  UNL1       -0.0045
     37 C          67.4486   94.9160    9.2296 C.ar    1  UNL1       -0.0246
     38 C          67.2952   96.3361    8.7714 C.3     1  UNL1        0.0307
     39 C          66.7353   94.4444   10.4620 C.ar    1  UNL1       -0.0125
     40 C          65.8687   95.3928   11.2361 C.3     1  UNL1        0.0320
@<TRIPOS>BOND
     1    22    23    1
     2    23    21    1
     3    21    19    1
     4    19    20    2
     5    19    18    1
     6    18     6    1
     7     6     7   ar
     8     7     8   ar
     9     8     5    1
    10     5     1    1
    11     1     2   am
    12     2     3    2
    13     2    24    1
    14    24    25    1
    15    25    26    1
    16    26    27    1
    17    27    28    1
    18    28    29    1
    19    29    30    1
    20    30    33    1
    21    33    34   ar
    22    34    35   ar
    23    35    36   ar
    24    36    37   ar
    25    37    38    1
    26    37    39   ar
    27    39    40    1
    28    30    31    1
    29    31    32    1
    30     8     9   ar
    31     9    10    2
    32     9    11   ar
    33    11    12   ar
    34    12    13   ar
    35    13    14    1
    36    13    15   ar
    37    15    16   ar
    38    16    17   ar
    39    17     6   ar
    40    32    27    1
    41    17    11   ar
    42    39    33   ar
    43     1     4    1
@<TRIPOS>MOLECULE
*****
 40 43 0 0 0
SMALL
GASTEIGER

@<TRIPOS>ATOM
      1 N          61.7897   89.5155   10.2487 N.am    1  UNL1       -0.2839
      2 C          60.4630   89.8987    9.6631 C.2     1  UNL1        0.2239
      3 O          59.4447   90.6030   10.5099 O.2     1  UNL1       -0.2751
      4 H          62.4580   89.0532    9.6929 H       1  UNL1        0.1512
      5 C          62.0982   89.8366   11.6810 C.3     1  UNL1        0.2237
      6 C          65.0764   92.4324   11.3045 C.ar    1  UNL1        0.0901
      7 N          63.8963   91.5704   10.9665 N.ar    1  UNL1       -0.1691
      8 N          63.2783   90.6986   12.0191 N.ar    1  UNL1       -0.1960
      9 C          63.8404   90.6888   13.4097 C.ar    1  UNL1        0.2779
     10 O          63.2225   89.8169   14.4623 O.2     1  UNL1       -0.2655
     11 C          65.0206   91.5508   13.7478 C.ar    1  UNL1        0.0610
     12 C          65.5827   91.5410   15.1384 C.ar    1  UNL1        0.0345
     13 C          66.7628   92.4030   15.4764 C.ar    1  UNL1        0.1403
     14 F          67.3250   92.3932   16.8671 F       1  UNL1       -0.2042
     15 C          67.3808   93.2748   14.4238 C.ar    1  UNL1        0.0297
     16 C          66.8187   93.2846   13.0331 C.ar    1  UNL1        0.0037
     17 C          65.6386   92.4226   12.6951 C.ar    1  UNL1        0.0206
     18 C          65.6943   93.3043   10.2518 C.3     1  UNL1        0.1569
     19 C          67.1593   93.1919    9.9501 C.2     1  UNL1        0.3231
     20 O          67.8128   91.8427    9.8964 O.2     1  UNL1       -0.2497
     21 O          67.9710   94.4287    9.7021 O.3     1  UNL1       -0.4482
     22 C          67.3133   96.4805    8.2502 C.3     1  UNL1        0.0513
     23 C          67.2896   95.7580    9.5645 C.3     1  UNL1        0.2086
     24 C          60.1545   89.5776    8.2307 C.3     1  UNL1        0.0865
     25 C          59.5761   88.2416    7.8693 C.3     1  UNL1        0.0269
     26 C          60.4779   87.0550    7.6999 C.3     1  UNL1        0.0727
     27 N          61.1436   86.4421    8.8963 N.3     1  UNL1       -0.2698
     28 C          60.5705   86.6570   10.2657 C.3     1  UNL1        0.0938
     29 C          61.2362   86.0440   11.4620 C.3     1  UNL1        0.1081
     30 N          62.4751   85.2162   11.2889 N.pl3   1  UNL1       -0.3049
     31 C          63.0482   85.0013    9.9194 C.3     1  UNL1        0.1081
     32 C          62.3825   85.6143    8.7231 C.3     1  UNL1        0.0938
     33 C          63.1408   84.6033   12.4851 C.ar    1  UNL1        0.0436
     34 C          63.8045   85.4800   13.5053 C.ar    1  UNL1        0.0142
     35 C          64.4703   84.8670   14.7017 C.ar    1  UNL1        0.0009
     36 C          64.4723   83.3774   14.8777 C.ar    1  UNL1       -0.0045
     37 C          63.8086   82.5007   13.8575 C.ar    1  UNL1       -0.0246
     38 C          63.8106   81.0111   14.0335 C.3     1  UNL1        0.0307
     39 C          63.1428   83.1136   12.6612 C.ar    1  UNL1       -0.0125
     40 C          62.4791   82.2369   11.6410 C.3     1  UNL1        0.0320
@<TRIPOS>BOND
     1    22    23    1
     2    23    21    1
     3    21    19    1
     4    19    20    2
     5    19    18    1
     6    18     6    1
     7     6     7   ar
     8     7     8   ar
     9     8     5    1
    10     5     1    1
    11     1     2   am
    12     2     3    2
    13     2    24    1
    14    24    25    1
    15    25    26    1
    16    26    27    1
    17    27    28    1
    18    28    29    1
    19    29    30    1
    20    30    33    1
    21    33    34   ar
    22    34    35   ar
    23    35    36   ar
    24    36    37   ar
    25    37    38    1
    26    37    39   ar
    27    39    40    1
    28    30    31    1
    29    31    32    1
    30     8     9   ar
    31     9    10    2
    32     9    11   ar
    33    11    12   ar
    34    12    13   ar
    35    13    14    1
    36    13    15   ar
    37    15    16   ar
    38    16    17   ar
    39    17     6   ar
    40    32    27    1
    41    17    11   ar
    42    39    33   ar
    43     1     4    1
@<TRIPOS>MOLECULE
*****
 40 43 0 0 0
SMALL
GASTEIGER

@<TRIPOS>ATOM
      1 N          60.5985   89.3853    9.5619 N.am    1  UNL1       -0.2839
      2 C          60.0304   88.6833    8.3642 C.2     1  UNL1        0.2239
      3 O          60.4082   87.2598    8.0800 O.2     1  UNL1       -0.2751
      4 H          60.3506   90.3196    9.7484 H       1  UNL1        0.1512
      5 C          61.5444   88.6637   10.4754 C.3     1  UNL1        0.2237
      6 C          63.8671   89.7565   13.5020 C.ar    1  UNL1        0.0901
      7 N          62.8787   88.9817   12.6818 N.ar    1  UNL1       -0.1691
      8 N          62.5328   89.4385   11.2956 N.ar    1  UNL1       -0.1960
      9 C          63.1752   90.6701   10.7296 C.ar    1  UNL1        0.2779
     10 O          62.8293   91.1269    9.3433 O.2     1  UNL1       -0.2655
     11 C          64.1636   91.4450   11.5498 C.ar    1  UNL1        0.0610
     12 C          64.8060   92.6766   10.9838 C.ar    1  UNL1        0.0345
     13 C          65.7944   93.4514   11.8040 C.ar    1  UNL1        0.1403
     14 F          66.4368   94.6831   11.2380 F       1  UNL1       -0.2042
     15 C          66.1403   92.9946   13.1903 C.ar    1  UNL1        0.0297
     16 C          65.4979   91.7630   13.7563 C.ar    1  UNL1        0.0037
     17 C          64.5096   90.9882   12.9360 C.ar    1  UNL1        0.0206
     18 C          64.2130   89.2997   14.8883 C.3     1  UNL1        0.1569
     19 C          63.3107   89.6400   16.0371 C.2     1  UNL1        0.3231
     20 O          63.3055   91.0302   16.6006 O.2     1  UNL1       -0.2497
     21 O          62.4135   88.5901   16.6227 O.3     1  UNL1       -0.4482
     22 C          62.2959   86.1157   17.4060 C.3     1  UNL1        0.0513
     23 C          63.0028   87.4385   17.3821 C.3     1  UNL1        0.2086
     24 C          59.0845   89.4050    7.4506 C.3     1  UNL1        0.0865
     25 C          59.5052   89.7439    6.0513 C.3     1  UNL1        0.0269
     26 C          59.1579   91.0810    5.4668 C.3     1  UNL1        0.0727
     27 N          60.0439   91.6970    4.4249 N.3     1  UNL1       -0.2698
     28 C          59.5196   92.7964    3.5493 C.3     1  UNL1        0.0938
     29 C          60.4055   93.4124    2.5073 C.3     1  UNL1        0.1081
     30 N          61.8157   92.9291    2.3409 N.pl3   1  UNL1       -0.3049
     31 C          62.3400   91.8297    3.2165 C.3     1  UNL1        0.1081
     32 C          61.4541   91.2137    4.2585 C.3     1  UNL1        0.0938
     33 C          62.7016   93.5451    1.2990 C.ar    1  UNL1        0.0436
     34 C          63.8831   94.3715    1.7126 C.ar    1  UNL1        0.0142
     35 C          64.7691   94.9876    0.6706 C.ar    1  UNL1        0.0009
     36 C          64.4736   94.7771   -0.7848 C.ar    1  UNL1       -0.0045
     37 C          63.2920   93.9506   -1.1983 C.ar    1  UNL1       -0.0246
     38 C          62.9965   93.7402   -2.6538 C.3     1  UNL1        0.0307
     39 C          62.4061   93.3346   -0.1564 C.ar    1  UNL1       -0.0125
     40 C          61.2246   92.5082   -0.5700 C.3     1  UNL1        0.0320
@<TRIPOS>BOND
     1    22    23    1
     2    23    21    1
     3    21    19    1
     4    19    20    2
     5    19    18    1
     6    18     6    1
     7     6     7   ar
     8     7     8   ar
     9     8     5    1
    10     5     1    1
    11     1     2   am
    12     2     3    2
    13     2    24    1
    14    24    25    1
    15    25    26    1
    16    26    27    1
    17    27    28    1
    18    28    29    1
    19    29    30    1
    20    30    33    1
    21    33    34   ar
    22    34    35   ar
    23    35    36   ar
    24    36    37   ar
    25    37    38    1
    26    37    39   ar
    27    39    40    1
    28    30    31    1
    29    31    32    1
    30     8     9   ar
    31     9    10    2
    32     9    11   ar
    33    11    12   ar
    34    12    13   ar
    35    13    14    1
    36    13    15   ar
    37    15    16   ar
    38    16    17   ar
    39    17     6   ar
    40    32    27    1
    41    17    11   ar
    42    39    33   ar
    43     1     4    1
@<TRIPOS>MOLECULE
*****
 40 43 0 0 0
SMALL
GASTEIGER

@<TRIPOS>ATOM
      1 N          63.5937   85.0950   14.3758 N.am    1  UNL1       -0.2839
      2 C          62.6927   84.3281   15.2977 C.2     1  UNL1        0.2239
      3 O          62.0953   83.0266   14.8514 O.2     1  UNL1       -0.2751
      4 H          63.9858   85.9492   14.6687 H       1  UNL1        0.1512
      5 C          63.8972   84.5605   13.0076 C.3     1  UNL1        0.2237
      6 C          61.1681   86.4571   10.8385 C.ar    1  UNL1        0.0901
      7 N          61.9842   86.0119   12.0157 N.ar    1  UNL1       -0.1691
      8 N          63.0811   85.0057   11.8303 N.ar    1  UNL1       -0.1960
      9 C          63.3619   84.4447   10.4678 C.ar    1  UNL1        0.2779
     10 O          64.4588   83.4385   10.2825 O.2     1  UNL1       -0.2655
     11 C          62.5457   84.8899    9.2906 C.ar    1  UNL1        0.0610
     12 C          62.8265   84.3289    7.9281 C.ar    1  UNL1        0.0345
     13 C          62.0104   84.7741    6.7510 C.ar    1  UNL1        0.1403
     14 F          62.2912   84.2131    5.3884 F       1  UNL1       -0.2042
     15 C          60.9135   85.7804    6.9364 C.ar    1  UNL1        0.0297
     16 C          60.6327   86.3414    8.2988 C.ar    1  UNL1        0.0037
     17 C          61.4488   85.8961    9.4760 C.ar    1  UNL1        0.0206
     18 C          60.0712   87.4633   11.0239 C.3     1  UNL1        0.1569
     19 C          60.4084   88.9071   11.2515 C.2     1  UNL1        0.3231
     20 O          61.0471   89.3341   12.5398 O.2     1  UNL1       -0.2497
     21 O          60.1070   89.9239   10.1907 O.3     1  UNL1       -0.4482
     22 C          59.5568   89.2797    7.7346 C.3     1  UNL1        0.0513
     23 C          60.5536   89.6890    8.7781 C.3     1  UNL1        0.2086
     24 C          62.3891   84.8626   16.6660 C.3     1  UNL1        0.0865
     25 C          63.1652   86.0273   17.2054 C.3     1  UNL1        0.0269
     26 C          62.5641   87.4015   17.1883 C.3     1  UNL1        0.0727
     27 N          63.2239   88.4991   16.4073 N.3     1  UNL1       -0.2698
     28 C          63.9759   88.1773   15.1500 C.3     1  UNL1        0.0938
     29 C          64.6357   89.2749   14.3689 C.3     1  UNL1        0.1081
     30 N          64.5434   90.6943   14.8452 N.pl3   1  UNL1       -0.3049
     31 C          63.7914   91.0161   16.1026 C.3     1  UNL1        0.1081
     32 C          63.1316   89.9185   16.8836 C.3     1  UNL1        0.0938
     33 C          65.2032   91.7919   14.0642 C.ar    1  UNL1        0.0436
     34 C          66.1782   92.7107   14.7388 C.ar    1  UNL1        0.0142
     35 C          66.8380   93.8084   13.9578 C.ar    1  UNL1        0.0009
     36 C          66.5227   93.9871   12.5022 C.ar    1  UNL1       -0.0045
     37 C          65.5477   93.0682   11.8276 C.ar    1  UNL1       -0.0246
     38 C          65.2325   93.2470   10.3721 C.3     1  UNL1        0.0307
     39 C          64.8880   91.9706   12.6086 C.ar    1  UNL1       -0.0125
     40 C          63.9130   91.0518   11.9341 C.3     1  UNL1        0.0320
@<TRIPOS>BOND
     1    22    23    1
     2    23    21    1
     3    21    19    1
     4    19    20    2
     5    19    18    1
     6    18     6    1
     7     6     7   ar
     8     7     8   ar
     9     8     5    1
    10     5     1    1
    11     1     2   am
    12     2     3    2
    13     2    24    1
    14    24    25    1
    15    25    26    1
    16    26    27    1
    17    27    28    1
    18    28    29    1
    19    29    30    1
    20    30    33    1
    21    33    34   ar
    22    34    35   ar
    23    35    36   ar
    24    36    37   ar
    25    37    38    1
    26    37    39   ar
    27    39    40    1
    28    30    31    1
    29    31    32    1
    30     8     9   ar
    31     9    10    2
    32     9    11   ar
    33    11    12   ar
    34    12    13   ar
    35    13    14    1
    36    13    15   ar
    37    15    16   ar
    38    16    17   ar
    39    17     6   ar
    40    32    27    1
    41    17    11   ar
    42    39    33   ar
    43     1     4    1
@<TRIPOS>MOLECULE
*****
 40 43 0 0 0
SMALL
GASTEIGER

@<TRIPOS>ATOM
      1 N          62.0108   87.6222   11.2988 N.am    1  UNL1       -0.2839
      2 C          60.7053   87.7434   10.5702 C.2     1  UNL1        0.2239
      3 O          60.3050   86.6999    9.5698 O.2     1  UNL1       -0.2751
      4 H          62.2736   88.3071   11.9554 H       1  UNL1        0.1512
      5 C          62.9160   86.4575   11.0270 C.3     1  UNL1        0.2237
      6 C          62.3930   83.9958   14.0957 C.ar    1  UNL1        0.0901
      7 N          62.5384   85.2600   13.3016 N.ar    1  UNL1       -0.1691
      8 N          62.7706   85.1932   11.8211 N.ar    1  UNL1       -0.1960
      9 C          62.8574   83.8623   11.1349 C.ar    1  UNL1        0.2779
     10 O          63.0896   83.7955    9.6544 O.2     1  UNL1       -0.2655
     11 C          62.7120   82.5980   11.9290 C.ar    1  UNL1        0.0610
     12 C          62.7987   81.2671   11.2427 C.ar    1  UNL1        0.0345
     13 C          62.6533   80.0029   12.0369 C.ar    1  UNL1        0.1403
     14 F          62.7401   78.6719   11.3506 F       1  UNL1       -0.2042
     15 C          62.4211   80.0697   13.5173 C.ar    1  UNL1        0.0297
     16 C          62.3344   81.4006   14.2036 C.ar    1  UNL1        0.0037
     17 C          62.4798   82.6648   13.4094 C.ar    1  UNL1        0.0206
     18 C          62.1608   84.0626   15.5761 C.3     1  UNL1        0.1569
     19 C          62.8230   85.1333   16.3916 C.2     1  UNL1        0.3231
     20 O          64.2701   85.4591   16.1683 O.2     1  UNL1       -0.2497
     21 O          62.0381   85.8783   17.4303 O.3     1  UNL1       -0.4482
     22 C          62.9881   88.2772   17.1257 C.3     1  UNL1        0.0513
     23 C          62.5874   87.1428   18.0215 C.3     1  UNL1        0.2086
     24 C          59.8000   88.9082   10.8421 C.3     1  UNL1        0.0865
     25 C          60.3222   90.3089   10.7179 C.3     1  UNL1        0.0269
     26 C          61.7174   90.5479   10.2216 C.3     1  UNL1        0.0727
     27 N          62.8062   90.9074   11.1888 N.3     1  UNL1       -0.2698
     28 C          63.9072   91.8349   10.7678 C.3     1  UNL1        0.0938
     29 C          64.9960   92.1944   11.7349 C.3     1  UNL1        0.1081
     30 N          64.9837   91.6263   13.1231 N.pl3   1  UNL1       -0.3049
     31 C          63.8826   90.6987   13.5442 C.3     1  UNL1        0.1081
     32 C          62.7938   90.3393   12.5770 C.3     1  UNL1        0.0938
     33 C          66.0724   91.9857   14.0903 C.ar    1  UNL1        0.0436
     34 C          65.7328   92.3121   15.5144 C.ar    1  UNL1        0.0142
     35 C          66.8215   92.6716   16.4817 C.ar    1  UNL1        0.0009
     36 C          68.2499   92.7047   16.0247 C.ar    1  UNL1       -0.0045
     37 C          68.5894   92.3783   14.6005 C.ar    1  UNL1       -0.0246
     38 C          70.0178   92.4114   14.1436 C.3     1  UNL1        0.0307
     39 C          67.5007   92.0188   13.6334 C.ar    1  UNL1       -0.0125
     40 C          67.8403   91.6925   12.2093 C.3     1  UNL1        0.0320
@<TRIPOS>BOND
     1    22    23    1
     2    23    21    1
     3    21    19    1
     4    19    20    2
     5    19    18    1
     6    18     6    1
     7     6     7   ar
     8     7     8   ar
     9     8     5    1
    10     5     1    1
    11     1     2   am
    12     2     3    2
    13     2    24    1
    14    24    25    1
    15    25    26    1
    16    26    27    1
    17    27    28    1
    18    28    29    1
    19    29    30    1
    20    30    33    1
    21    33    34   ar
    22    34    35   ar
    23    35    36   ar
    24    36    37   ar
    25    37    38    1
    26    37    39   ar
    27    39    40    1
    28    30    31    1
    29    31    32    1
    30     8     9   ar
    31     9    10    2
    32     9    11   ar
    33    11    12   ar
    34    12    13   ar
    35    13    14    1
    36    13    15   ar
    37    15    16   ar
    38    16    17   ar
    39    17     6   ar
    40    32    27    1
    41    17    11   ar
    42    39    33   ar
    43     1     4    1
@<TRIPOS>MOLECULE
*****
 40 43 0 0 0
SMALL
GASTEIGER

@<TRIPOS>ATOM
      1 N          59.9475   91.1632    5.1560 N.am    1  UNL1       -0.2839
      2 C          59.0899   90.2465    5.9770 C.2     1  UNL1        0.2239
      3 O          57.5996   90.2619    5.8077 O.2     1  UNL1       -0.2751
      4 H          60.9257   91.1530    5.2671 H       1  UNL1        0.1512
      5 C          59.3148   92.0953    4.1657 C.3     1  UNL1        0.2237
      6 C          60.2924   94.0750    0.8680 C.ar    1  UNL1        0.0901
      7 N          59.4748   93.5027    1.9877 N.ar    1  UNL1       -0.1691
      8 N          60.1326   92.6676    3.0459 N.ar    1  UNL1       -0.1960
      9 C          61.6081   92.4049    2.9845 C.ar    1  UNL1        0.2779
     10 O          62.2659   91.5698    4.0427 O.2     1  UNL1       -0.2655
     11 C          62.4259   92.9772    1.8647 C.ar    1  UNL1        0.0610
     12 C          63.9014   92.7145    1.8033 C.ar    1  UNL1        0.0345
     13 C          64.7190   93.2868    0.6836 C.ar    1  UNL1        0.1403
     14 F          66.1946   93.0241    0.6221 F       1  UNL1       -0.2042
     15 C          64.0612   94.1219   -0.3747 C.ar    1  UNL1        0.0297
     16 C          62.5857   94.3847   -0.3132 C.ar    1  UNL1        0.0037
     17 C          61.7680   93.8123    0.8065 C.ar    1  UNL1        0.0206
     18 C          59.6346   94.9101   -0.1903 C.3     1  UNL1        0.1569
     19 C          58.9963   94.2509   -1.3768 C.2     1  UNL1        0.3231
     20 O          59.8433   93.7978   -2.5289 O.2     1  UNL1       -0.2497
     21 O          57.5109   94.0447   -1.4113 O.3     1  UNL1       -0.4482
     22 C          56.0669   92.0729   -2.2928 C.3     1  UNL1        0.0513
     23 C          56.9402   92.6695   -1.2291 C.3     1  UNL1        0.2086
     24 C          59.7226   89.3143    6.9674 C.3     1  UNL1        0.0865
     25 C          58.9945   88.0780    7.4048 C.3     1  UNL1        0.0269
     26 C          59.2212   87.5207    8.7788 C.3     1  UNL1        0.0727
     27 N          60.2429   88.1452    9.6824 N.3     1  UNL1       -0.2698
     28 C          59.8500   89.2690   10.5949 C.3     1  UNL1        0.0938
     29 C          60.8717   89.8935   11.4985 C.3     1  UNL1        0.1081
     30 N          62.2861   89.3942   11.4894 N.pl3   1  UNL1       -0.3049
     31 C          62.6789   88.2704   10.5768 C.3     1  UNL1        0.1081
     32 C          61.6573   87.6459    9.6733 C.3     1  UNL1        0.0938
     33 C          63.3077   90.0187   12.3928 C.ar    1  UNL1        0.0436
     34 C          63.5670   89.4334   13.7493 C.ar    1  UNL1        0.0142
     35 C          64.5887   90.0579   14.6529 C.ar    1  UNL1        0.0009
     36 C          65.3510   91.2677   14.1999 C.ar    1  UNL1       -0.0045
     37 C          65.0916   91.8530   12.8433 C.ar    1  UNL1       -0.0246
     38 C          65.8539   93.0629   12.3903 C.3     1  UNL1        0.0307
     39 C          64.0700   91.2286   11.9398 C.ar    1  UNL1       -0.0125
     40 C          63.8107   91.8139   10.5834 C.3     1  UNL1        0.0320
@<TRIPOS>BOND
     1    22    23    1
     2    23    21    1
     3    21    19    1
     4    19    20    2
     5    19    18    1
     6    18     6    1
     7     6     7   ar
     8     7     8   ar
     9     8     5    1
    10     5     1    1
    11     1     2   am
    12     2     3    2
    13     2    24    1
    14    24    25    1
    15    25    26    1
    16    26    27    1
    17    27    28    1
    18    28    29    1
    19    29    30    1
    20    30    33    1
    21    33    34   ar
    22    34    35   ar
    23    35    36   ar
    24    36    37   ar
    25    37    38    1
    26    37    39   ar
    27    39    40    1
    28    30    31    1
    29    31    32    1
    30     8     9   ar
    31     9    10    2
    32     9    11   ar
    33    11    12   ar
    34    12    13   ar
    35    13    14    1
    36    13    15   ar
    37    15    16   ar
    38    16    17   ar
    39    17     6   ar
    40    32    27    1
    41    17    11   ar
    42    39    33   ar
    43     1     4    1
@<TRIPOS>MOLECULE
*****
 40 43 0 0 0
SMALL
GASTEIGER

@<TRIPOS>ATOM
      1 N          61.4172   86.6297   10.2096 N.am    1  UNL1       -0.2839
      2 C          61.4629   86.3509    8.7365 C.2     1  UNL1        0.2239
      3 O          62.6779   85.7126    8.1313 O.2     1  UNL1       -0.2751
      4 H          60.6198   87.0487   10.6068 H       1  UNL1        0.1512
      5 C          62.5865   86.2701   11.0775 C.3     1  UNL1        0.2237
      6 C          62.3455   83.8716   14.2302 C.ar    1  UNL1        0.0901
      7 N          62.3847   85.1189   13.3979 N.ar    1  UNL1       -0.1691
      8 N          62.5472   85.0227   11.9099 N.ar    1  UNL1       -0.1960
      9 C          62.6704   83.6793   11.2541 C.ar    1  UNL1        0.2779
     10 O          62.8329   83.5832    9.7660 O.2     1  UNL1       -0.2655
     11 C          62.6311   82.4320   12.0864 C.ar    1  UNL1        0.0610
     12 C          62.7543   81.0886   11.4307 C.ar    1  UNL1        0.0345
     13 C          62.7150   79.8414   12.2630 C.ar    1  UNL1        0.1403
     14 F          62.8382   78.4979   11.6072 F       1  UNL1       -0.2042
     15 C          62.5526   79.9375   13.7511 C.ar    1  UNL1        0.0297
     16 C          62.4294   81.2809   14.4068 C.ar    1  UNL1        0.0037
     17 C          62.4687   82.5282   13.5745 C.ar    1  UNL1        0.0206
     18 C          62.1830   83.9678   15.7183 C.3     1  UNL1        0.1569
     19 C          62.3680   85.2862   16.4093 C.2     1  UNL1        0.3231
     20 O          61.1749   86.0426   16.9137 O.2     1  UNL1       -0.2497
     21 O          63.7461   85.8483   16.5960 O.3     1  UNL1       -0.4482
     22 C          65.5409   85.5164   14.7470 C.3     1  UNL1        0.0513
     23 C          64.5078   86.3742   15.4156 C.3     1  UNL1        0.2086
     24 C          60.2936   86.7105    7.8684 C.3     1  UNL1        0.0865
     25 C          59.2813   87.7076    8.3491 C.3     1  UNL1        0.0269
     26 C          59.6704   89.1453    8.5267 C.3     1  UNL1        0.0727
     27 N          60.6213   89.5354    9.6193 N.3     1  UNL1       -0.2698
     28 C          62.0634   89.7971    9.3004 C.3     1  UNL1        0.0938
     29 C          63.0144   90.1873   10.3929 C.3     1  UNL1        0.1081
     30 N          62.5231   90.3157   11.8043 N.pl3   1  UNL1       -0.3049
     31 C          61.0809   90.0540   12.1232 C.3     1  UNL1        0.1081
     32 C          60.1300   89.6639   11.0307 C.3     1  UNL1        0.0938
     33 C          63.4739   90.7059   12.8969 C.ar    1  UNL1        0.0436
     34 C          63.2895   90.1602   14.2818 C.ar    1  UNL1        0.0142
     35 C          64.2404   90.5504   15.3745 C.ar    1  UNL1        0.0009
     36 C          65.3756   91.4862   15.0820 C.ar    1  UNL1       -0.0045
     37 C          65.5600   92.0318   13.6969 C.ar    1  UNL1       -0.0246
     38 C          66.6952   92.9676   13.4045 C.3     1  UNL1        0.0307
     39 C          64.6091   91.6417   12.6044 C.ar    1  UNL1       -0.0125
     40 C          64.7935   92.1873   11.2194 C.3     1  UNL1        0.0320
@<TRIPOS>BOND
     1    22    23    1
     2    23    21    1
     3    21    19    1
     4    19    20    2
     5    19    18    1
     6    18     6    1
     7     6     7   ar
     8     7     8   ar
     9     8     5    1
    10     5     1    1
    11     1     2   am
    12     2     3    2
    13     2    24    1
    14    24    25    1
    15    25    26    1
    16    26    27    1
    17    27    28    1
    18    28    29    1
    19    29    30    1
    20    30    33    1
    21    33    34   ar
    22    34    35   ar
    23    35    36   ar
    24    36    37   ar
    25    37    38    1
    26    37    39   ar
    27    39    40    1
    28    30    31    1
    29    31    32    1
    30     8     9   ar
    31     9    10    2
    32     9    11   ar
    33    11    12   ar
    34    12    13   ar
    35    13    14    1
    36    13    15   ar
    37    15    16   ar
    38    16    17   ar
    39    17     6   ar
    40    32    27    1
    41    17    11   ar
    42    39    33   ar
    43     1     4    1
@<TRIPOS>MOLECULE
*****
 40 43 0 0 0
SMALL
GASTEIGER

@<TRIPOS>ATOM
      1 N          60.8880   89.3848    9.5913 N.am    1  UNL1       -0.2839
      2 C          60.1487   88.7550    8.4482 C.2     1  UNL1        0.2239
      3 O          60.3678   87.3080    8.1196 O.2     1  UNL1       -0.2751
      4 H          60.7442   90.3346    9.8070 H       1  UNL1        0.1512
      5 C          61.8464   88.5675   10.4058 C.3     1  UNL1        0.2237
      6 C          63.9779   89.2593   13.6812 C.ar    1  UNL1        0.0901
      7 N          63.0629   88.5864   12.7014 N.ar    1  UNL1       -0.1691
      8 N          62.7614   89.2404   11.3856 N.ar    1  UNL1       -0.1960
      9 C          63.3749   90.5673   11.0495 C.ar    1  UNL1        0.2779
     10 O          63.0734   91.2213    9.7337 O.2     1  UNL1       -0.2655
     11 C          64.2900   91.2403   12.0293 C.ar    1  UNL1        0.0610
     12 C          64.9035   92.5671   11.6933 C.ar    1  UNL1        0.0345
     13 C          65.8185   93.2400   12.6730 C.ar    1  UNL1        0.1403
     14 F          66.4320   94.5669   12.3370 F       1  UNL1       -0.2042
     15 C          66.1200   92.5860   13.9889 C.ar    1  UNL1        0.0297
     16 C          65.5065   91.2591   14.3249 C.ar    1  UNL1        0.0037
     17 C          64.5915   90.5863   13.3451 C.ar    1  UNL1        0.0206
     18 C          64.2794   88.6053   14.9970 C.3     1  UNL1        0.1569
     19 C          64.0100   87.1419   15.1864 C.2     1  UNL1        0.3231
     20 O          63.1905   86.6750   16.3528 O.2     1  UNL1       -0.2497
     21 O          64.5599   86.1454   14.2093 O.3     1  UNL1       -0.4482
     22 C          64.3882   83.8194   13.0647 C.3     1  UNL1        0.0513
     23 C          63.7513   84.9393   13.8329 C.3     1  UNL1        0.2086
     24 C          59.1902   89.5723    7.6336 C.3     1  UNL1        0.0865
     25 C          59.4094   89.7360    6.1588 C.3     1  UNL1        0.0269
     26 C          59.0379   91.0229    5.4837 C.3     1  UNL1        0.0727
     27 N          59.9597   91.6304    4.4682 N.3     1  UNL1       -0.2698
     28 C          61.3747   91.1457    4.3548 C.3     1  UNL1        0.0938
     29 C          62.2965   91.7533    3.3393 C.3     1  UNL1        0.1081
     30 N          61.8033   92.8456    2.4372 N.pl3   1  UNL1       -0.3049
     31 C          60.3883   93.3303    2.5507 C.3     1  UNL1        0.1081
     32 C          59.4665   92.7227    3.5661 C.3     1  UNL1        0.0938
     33 C          62.7251   93.4532    1.4218 C.ar    1  UNL1        0.0436
     34 C          63.9280   94.2289    1.8701 C.ar    1  UNL1        0.0142
     35 C          64.8499   94.8365    0.8547 C.ar    1  UNL1        0.0009
     36 C          64.5686   94.6684   -0.6091 C.ar    1  UNL1       -0.0045
     37 C          63.3656   93.8926   -1.0574 C.ar    1  UNL1       -0.0246
     38 C          63.0844   93.7244   -2.5212 C.3     1  UNL1        0.0307
     39 C          62.4438   93.2850   -0.0420 C.ar    1  UNL1       -0.0125
     40 C          61.2409   92.5093   -0.4903 C.3     1  UNL1        0.0320
@<TRIPOS>BOND
     1    22    23    1
     2    23    21    1
     3    21    19    1
     4    19    20    2
     5    19    18    1
     6    18     6    1
     7     6     7   ar
     8     7     8   ar
     9     8     5    1
    10     5     1    1
    11     1     2   am
    12     2     3    2
    13     2    24    1
    14    24    25    1
    15    25    26    1
    16    26    27    1
    17    27    28    1
    18    28    29    1
    19    29    30    1
    20    30    33    1
    21    33    34   ar
    22    34    35   ar
    23    35    36   ar
    24    36    37   ar
    25    37    38    1
    26    37    39   ar
    27    39    40    1
    28    30    31    1
    29    31    32    1
    30     8     9   ar
    31     9    10    2
    32     9    11   ar
    33    11    12   ar
    34    12    13   ar
    35    13    14    1
    36    13    15   ar
    37    15    16   ar
    38    16    17   ar
    39    17     6   ar
    40    32    27    1
    41    17    11   ar
    42    39    33   ar
    43     1     4    1
@<TRIPOS>MOLECULE
*****
 40 43 0 0 0
SMALL
GASTEIGER

@<TRIPOS>ATOM
      1 N          60.6555   88.0195    8.5748 N.am    1  UNL1       -0.2839
      2 C          59.3662   88.0920    7.8118 C.2     1  UNL1        0.2239
      3 O          58.5091   86.8692    7.6694 O.2     1  UNL1       -0.2751
      4 H          61.2180   88.8220    8.6683 H       1  UNL1        0.1512
      5 C          61.0878   86.7241    9.1955 C.3     1  UNL1        0.2237
      6 C          63.0560   85.4406   12.3938 C.ar    1  UNL1        0.0901
      7 N          62.2637   85.4345   11.1201 N.ar    1  UNL1       -0.1691
      8 N          61.8801   86.7303   10.4692 N.ar    1  UNL1       -0.1960
      9 C          62.2888   88.0323   11.0920 C.ar    1  UNL1        0.2779
     10 O          61.9051   89.3281   10.4411 O.2     1  UNL1       -0.2655
     11 C          63.0811   88.0385   12.3657 C.ar    1  UNL1        0.0610
     12 C          63.4897   89.3404   12.9884 C.ar    1  UNL1        0.0345
     13 C          64.2820   89.3466   14.2621 C.ar    1  UNL1        0.1403
     14 F          64.6907   90.6486   14.8849 F       1  UNL1       -0.2042
     15 C          64.6656   88.0507   14.9130 C.ar    1  UNL1        0.0297
     16 C          64.2570   86.7488   14.2902 C.ar    1  UNL1        0.0037
     17 C          63.4647   86.7426   13.0166 C.ar    1  UNL1        0.0206
     18 C          63.4396   84.1448   13.0447 C.3     1  UNL1        0.1569
     19 C          63.4348   82.8745   12.2470 C.2     1  UNL1        0.3231
     20 O          64.6363   82.4957   11.4327 O.2     1  UNL1       -0.2497
     21 O          62.2286   81.9831   12.2635 O.3     1  UNL1       -0.4482
     22 C          60.7912   80.7979   14.0745 C.3     1  UNL1        0.0513
     23 C          62.0847   80.9355   13.3275 C.3     1  UNL1        0.2086
     24 C          58.9338   89.3873    7.1911 C.3     1  UNL1        0.0865
     25 C          59.5177   89.8223    5.8797 C.3     1  UNL1        0.0269
     26 C          59.1996   91.1817    5.3311 C.3     1  UNL1        0.0727
     27 N          60.1039   91.8098    4.3124 N.3     1  UNL1       -0.2698
     28 C          61.5052   91.3034    4.1397 C.3     1  UNL1        0.0938
     29 C          62.4095   91.9316    3.1210 C.3     1  UNL1        0.1081
     30 N          61.9124   93.0662    2.2750 N.pl3   1  UNL1       -0.3049
     31 C          60.5110   93.5726    2.4478 C.3     1  UNL1        0.1081
     32 C          59.6068   92.9444    3.4664 C.3     1  UNL1        0.0938
     33 C          62.8166   93.6943    1.2563 C.ar    1  UNL1        0.0436
     34 C          63.9775   94.5341    1.7003 C.ar    1  UNL1        0.0142
     35 C          64.8818   95.1623    0.6816 C.ar    1  UNL1        0.0009
     36 C          64.6251   94.9507   -0.7811 C.ar    1  UNL1       -0.0045
     37 C          63.4642   94.1109   -1.2250 C.ar    1  UNL1       -0.0246
     38 C          63.2075   93.8993   -2.6877 C.3     1  UNL1        0.0307
     39 C          62.5600   93.4827   -0.2063 C.ar    1  UNL1       -0.0125
     40 C          61.3991   92.6430   -0.6503 C.3     1  UNL1        0.0320
@<TRIPOS>BOND
     1    22    23    1
     2    23    21    1
     3    21    19    1
     4    19    20    2
     5    19    18    1
     6    18     6    1
     7     6     7   ar
     8     7     8   ar
     9     8     5    1
    10     5     1    1
    11     1     2   am
    12     2     3    2
    13     2    24    1
    14    24    25    1
    15    25    26    1
    16    26    27    1
    17    27    28    1
    18    28    29    1
    19    29    30    1
    20    30    33    1
    21    33    34   ar
    22    34    35   ar
    23    35    36   ar
    24    36    37   ar
    25    37    38    1
    26    37    39   ar
    27    39    40    1
    28    30    31    1
    29    31    32    1
    30     8     9   ar
    31     9    10    2
    32     9    11   ar
    33    11    12   ar
    34    12    13   ar
    35    13    14    1
    36    13    15   ar
    37    15    16   ar
    38    16    17   ar
    39    17     6   ar
    40    32    27    1
    41    17    11   ar
    42    39    33   ar
    43     1     4    1
