@<TRIPOS>MOLECULE
*****
 36 40 0 0 0
SMALL
GASTEIGER

@<TRIPOS>ATOM
      1 C          62.5370   90.7743   10.6297 C.3     1  UNL1        0.1336
      2 N          62.2882   89.2955   10.6636 N.ar    1  UNL1       -0.2922
      3 C          62.9566   88.4462   11.7037 C.ar    1  UNL1        0.2783
      4 O          63.8739   89.0757   12.7099 O.2     1  UNL1       -0.2653
      5 C          62.7078   86.9673   11.7376 C.ar    1  UNL1        0.1370
      6 C          61.7906   86.3378   10.7315 C.ar    1  UNL1        0.1060
      7 N          61.7375   84.8649   11.0103 N.ar    1  UNL1       -0.2134
      8 C          62.6220   84.5841   12.1887 C.ar    1  UNL1        0.2015
      9 N          63.2217   85.8835   12.6383 N.ar    1  UNL1       -0.2915
     10 C          61.1221   87.1872    9.6913 C.ar    1  UNL1        0.0352
     11 C          60.2048   86.5576    8.6852 C.ar    1  UNL1        0.0030
     12 C          59.5364   87.4070    7.6452 C.ar    1  UNL1        0.0013
     13 C          59.7852   88.8858    7.6112 C.ar    1  UNL1        0.0154
     14 C          60.7024   89.5153    8.6173 C.ar    1  UNL1        0.0184
     15 C          61.3709   88.6660    9.6574 C.ar    1  UNL1        0.0641
     16 N          62.8643   83.2399   12.8088 N.pl3   1  UNL1       -0.2782
     17 C          64.2539   82.6774   12.8608 C.3     1  UNL1        0.0937
     18 C          64.4962   81.3333   13.4808 C.3     1  UNL1        0.0229
     19 C          63.3489   80.5516   14.0489 C.3     1  UNL1        0.0190
     20 C          61.9594   81.1141   13.9970 C.3     1  UNL1        0.0710
     21 N          60.8121   80.3324   14.5651 N.3     1  UNL1       -0.3208
     22 C          61.7171   82.4583   13.3769 C.3     1  UNL1        0.1089
     23 H          61.1561   79.4495   14.9427 H       1  UNL1        0.1189
     24 H          60.1308   80.1452   13.8295 H       1  UNL1        0.1189
     25 C          59.1167   89.7351    6.5711 C.2     1  UNL1        0.0729
     26 O          57.6197   89.8136    6.5156 O.co2   1  UNL1       -0.5446
     27 O          59.9451   90.5060    5.5865 O.co2   1  UNL1       -0.5446
     28 C          64.1690   86.0668   13.7868 C.3     1  UNL1        0.1365
     29 C          63.6651   86.5935   15.0979 C.ar    1  UNL1        0.0133
     30 C          63.7311   88.0631   15.3910 C.ar    1  UNL1        0.0281
     31 C          63.2272   88.5898   16.7020 C.ar    1  UNL1        0.1399
     32 F          63.2932   90.0594   16.9951 F       1  UNL1       -0.2042
     33 C          62.6574   87.6468   17.7198 C.ar    1  UNL1        0.0305
     34 C          62.5914   86.1772   17.4267 C.ar    1  UNL1        0.0134
     35 C          63.0952   85.6505   16.1157 C.ar    1  UNL1        0.0557
     36 CL         63.0292   84.1809   15.8226 Cl      1  UNL1       -0.0825
@<TRIPOS>UNITY_ATOM_ATTR
26 1
charge -1
@<TRIPOS>BOND
     1     1     2    1
     2     2     3   ar
     3     3     4    2
     4     3     5   ar
     5     5     6   ar
     6     6     7   ar
     7     7     8   ar
     8     8    16    1
     9    16    17    1
    10    17    18    1
    11    18    19    1
    12    19    20    1
    13    20    21    1
    14    20    22    1
    15     8     9   ar
    16     9    28    1
    17    28    29    1
    18    29    30   ar
    19    30    31   ar
    20    31    32    1
    21    31    33   ar
    22    33    34   ar
    23    34    35   ar
    24    35    36    1
    25     6    10   ar
    26    10    11   ar
    27    11    12   ar
    28    12    13   ar
    29    13    25    1
    30    25    26   ar
    31    25    27   ar
    32    13    14   ar
    33    14    15   ar
    34    15     2   ar
    35     9     5   ar
    36    35    29   ar
    37    15    10   ar
    38    22    16    1
    39    21    23    1
    40    21    24    1
@<TRIPOS>MOLECULE
*****
 36 40 0 0 0
SMALL
GASTEIGER

@<TRIPOS>ATOM
      1 C          61.2864   85.6880   10.2788 C.3     1  UNL1        0.1336
      2 N          62.1653   86.1780   11.3913 N.ar    1  UNL1       -0.2922
      3 C          62.3757   87.6500   11.5881 C.ar    1  UNL1        0.2783
      4 O          61.7072   88.6322   10.6723 O.2     1  UNL1       -0.2653
      5 C          63.2545   88.1400   12.7005 C.ar    1  UNL1        0.1370
      6 C          63.9229   87.1579   13.6163 C.ar    1  UNL1        0.1060
      7 N          64.7275   87.9317   14.6182 N.ar    1  UNL1       -0.2134
      8 C          64.5564   89.3921   14.3216 C.ar    1  UNL1        0.2015
      9 N          63.6460   89.5208   13.1364 N.ar    1  UNL1       -0.2915
     10 C          63.7125   85.6857   13.4196 C.ar    1  UNL1        0.0352
     11 C          64.3809   84.7036   14.3354 C.ar    1  UNL1        0.0030
     12 C          64.1705   83.2316   14.1386 C.ar    1  UNL1        0.0013
     13 C          63.2917   82.7416   13.0261 C.ar    1  UNL1        0.0154
     14 C          62.6233   83.7237   12.1104 C.ar    1  UNL1        0.0184
     15 C          62.8337   85.1958   12.3071 C.ar    1  UNL1        0.0641
     16 N          65.1853   90.5249   15.0775 N.pl3   1  UNL1       -0.2782
     17 C          64.3537   91.3610   16.0045 C.3     1  UNL1        0.0937
     18 C          64.9825   92.4938   16.7604 C.3     1  UNL1        0.0229
     19 C          66.4429   92.7904   16.5893 C.3     1  UNL1        0.0190
     20 C          67.2745   91.9542   15.6623 C.3     1  UNL1        0.0710
     21 N          68.7349   92.2508   15.4912 N.3     1  UNL1       -0.3208
     22 C          66.6456   90.8215   14.9064 C.3     1  UNL1        0.1089
     23 H          68.9909   93.0469   16.0753 H       1  UNL1        0.1189
     24 H          68.9248   92.4715   14.5136 H       1  UNL1        0.1189
     25 C          63.0813   81.2695   12.8294 C.2     1  UNL1        0.0729
     26 O          63.1079   80.3438   14.0095 O.co2   1  UNL1       -0.5446
     27 O          62.8444   80.7231   11.4528 O.co2   1  UNL1       -0.5446
     28 C          63.2046   90.8050   12.4990 C.3     1  UNL1        0.1365
     29 C          64.2253   91.7802   11.9919 C.ar    1  UNL1        0.0133
     30 C          65.1273   92.4914   12.9566 C.ar    1  UNL1        0.0281
     31 C          66.1480   93.4666   12.4496 C.ar    1  UNL1        0.1399
     32 F          67.0500   94.1777   13.4143 F       1  UNL1       -0.2042
     33 C          66.2666   93.7306   10.9778 C.ar    1  UNL1        0.0305
     34 C          65.3646   93.0195   10.0131 C.ar    1  UNL1        0.0134
     35 C          64.3439   92.0442   10.5202 C.ar    1  UNL1        0.0557
     36 CL         63.4419   91.3331    9.5555 Cl      1  UNL1       -0.0825
@<TRIPOS>UNITY_ATOM_ATTR
26 1
charge -1
@<TRIPOS>BOND
     1     1     2    1
     2     2     3   ar
     3     3     4    2
     4     3     5   ar
     5     5     6   ar
     6     6     7   ar
     7     7     8   ar
     8     8    16    1
     9    16    17    1
    10    17    18    1
    11    18    19    1
    12    19    20    1
    13    20    21    1
    14    20    22    1
    15     8     9   ar
    16     9    28    1
    17    28    29    1
    18    29    30   ar
    19    30    31   ar
    20    31    32    1
    21    31    33   ar
    22    33    34   ar
    23    34    35   ar
    24    35    36    1
    25     6    10   ar
    26    10    11   ar
    27    11    12   ar
    28    12    13   ar
    29    13    25    1
    30    25    26   ar
    31    25    27   ar
    32    13    14   ar
    33    14    15   ar
    34    15     2   ar
    35     9     5   ar
    36    35    29   ar
    37    15    10   ar
    38    22    16    1
    39    21    23    1
    40    21    24    1
@<TRIPOS>MOLECULE
*****
 36 40 0 0 0
SMALL
GASTEIGER

@<TRIPOS>ATOM
      1 C          61.5836   85.2387   10.5862 C.3     1  UNL1        0.1336
      2 N          61.9920   86.6199   11.0049 N.ar    1  UNL1       -0.2922
      3 C          62.9117   86.8079   12.1748 C.ar    1  UNL1        0.2783
      4 O          63.4231   85.6145   12.9261 O.2     1  UNL1       -0.2653
      5 C          63.3200   88.1892   12.5935 C.ar    1  UNL1        0.1370
      6 C          62.8086   89.3825   11.8422 C.ar    1  UNL1        0.1060
      7 N          63.3798   90.6130   12.4823 N.ar    1  UNL1       -0.2134
      8 C          64.2442   90.1801   13.6292 C.ar    1  UNL1        0.2015
      9 N          64.2073   88.6821   13.6979 N.ar    1  UNL1       -0.2915
     10 C          61.8889   89.1946   10.6722 C.ar    1  UNL1        0.0352
     11 C          61.3775   90.3879    9.9210 C.ar    1  UNL1        0.0030
     12 C          60.4578   90.2000    8.7511 C.ar    1  UNL1        0.0013
     13 C          60.0494   88.8187    8.3324 C.ar    1  UNL1        0.0154
     14 C          60.5608   87.6254    9.0837 C.ar    1  UNL1        0.0184
     15 C          61.4805   87.8133   10.2536 C.ar    1  UNL1        0.0641
     16 N          65.0110   91.0861   14.5464 N.pl3   1  UNL1       -0.2782
     17 C          64.4095   91.5153   15.8518 C.3     1  UNL1        0.0937
     18 C          65.1762   92.4214   16.7690 C.3     1  UNL1        0.0229
     19 C          66.5444   92.8981   16.3808 C.3     1  UNL1        0.0190
     20 C          67.1459   92.4689   15.0755 C.3     1  UNL1        0.0710
     21 N          68.5141   92.9457   14.6873 N.3     1  UNL1       -0.3208
     22 C          66.3792   91.5629   14.1583 C.3     1  UNL1        0.1089
     23 H          68.8854   93.5480   15.4220 H       1  UNL1        0.1189
     24 H          68.4565   93.4702   13.8144 H       1  UNL1        0.1189
     25 C          59.1297   88.6308    7.1624 C.2     1  UNL1        0.0729
     26 O          59.0429   89.6857    6.0997 O.co2   1  UNL1       -0.5446
     27 O          58.2968   87.3879    7.0553 O.co2   1  UNL1       -0.5446
     28 C          64.9306   87.8271   14.6959 C.3     1  UNL1        0.1365
     29 C          64.1787   86.7973   15.4859 C.ar    1  UNL1        0.0133
     30 C          64.3337   85.3414   15.1597 C.ar    1  UNL1        0.0281
     31 C          63.5818   84.3116   15.9497 C.ar    1  UNL1        0.1399
     32 F          63.7367   82.8557   15.6235 F       1  UNL1       -0.2042
     33 C          62.6749   84.7377   17.0659 C.ar    1  UNL1        0.0305
     34 C          62.5200   86.1936   17.3922 C.ar    1  UNL1        0.0134
     35 C          63.2719   87.2234   16.6021 C.ar    1  UNL1        0.0557
     36 CL         63.1169   88.6793   16.9283 Cl      1  UNL1       -0.0825
@<TRIPOS>UNITY_ATOM_ATTR
26 1
charge -1
@<TRIPOS>BOND
     1     1     2    1
     2     2     3   ar
     3     3     4    2
     4     3     5   ar
     5     5     6   ar
     6     6     7   ar
     7     7     8   ar
     8     8    16    1
     9    16    17    1
    10    17    18    1
    11    18    19    1
    12    19    20    1
    13    20    21    1
    14    20    22    1
    15     8     9   ar
    16     9    28    1
    17    28    29    1
    18    29    30   ar
    19    30    31   ar
    20    31    32    1
    21    31    33   ar
    22    33    34   ar
    23    34    35   ar
    24    35    36    1
    25     6    10   ar
    26    10    11   ar
    27    11    12   ar
    28    12    13   ar
    29    13    25    1
    30    25    26   ar
    31    25    27   ar
    32    13    14   ar
    33    14    15   ar
    34    15     2   ar
    35     9     5   ar
    36    35    29   ar
    37    15    10   ar
    38    22    16    1
    39    21    23    1
    40    21    24    1
@<TRIPOS>MOLECULE
*****
 36 40 0 0 0
SMALL
GASTEIGER

@<TRIPOS>ATOM
      1 C          63.0828   92.0341   10.4694 C.3     1  UNL1        0.1336
      2 N          63.3330   90.8737   11.3863 N.ar    1  UNL1       -0.2922
      3 C          62.6293   89.5694   11.1546 C.ar    1  UNL1        0.2783
      4 O          61.6754   89.4256   10.0059 O.2     1  UNL1       -0.2653
      5 C          62.8795   88.4090   12.0716 C.ar    1  UNL1        0.1370
      6 C          63.8334   88.5528   13.2202 C.ar    1  UNL1        0.1060
      7 N          63.8792   87.2439   13.9514 N.ar    1  UNL1       -0.2134
      8 C          62.9535   86.2911   13.2547 C.ar    1  UNL1        0.2015
      9 N          62.3357   87.0112   12.0929 N.ar    1  UNL1       -0.2915
     10 C          64.5371   89.8571   13.4520 C.ar    1  UNL1        0.0352
     11 C          65.4910   90.0009   14.6006 C.ar    1  UNL1        0.0030
     12 C          66.1947   91.3051   14.8323 C.ar    1  UNL1        0.0013
     13 C          65.9445   92.4656   13.9153 C.ar    1  UNL1        0.0154
     14 C          64.9906   92.3218   12.7667 C.ar    1  UNL1        0.0184
     15 C          64.2869   91.0175   12.5350 C.ar    1  UNL1        0.0641
     16 N          62.6917   84.8681   13.6503 N.pl3   1  UNL1       -0.2782
     17 C          62.2535   84.5469   15.0485 C.3     1  UNL1        0.0937
     18 C          61.9917   83.1239   15.4441 C.3     1  UNL1        0.0229
     19 C          62.1681   82.0222   14.4417 C.3     1  UNL1        0.0190
     20 C          62.6063   82.3434   13.0435 C.3     1  UNL1        0.0710
     21 N          62.7826   81.2416   12.0410 N.3     1  UNL1       -0.3208
     22 C          62.8681   83.7664   12.6479 C.3     1  UNL1        0.1089
     23 H          62.5635   80.3462   12.4778 H       1  UNL1        0.1189
     24 H          63.7482   81.2323   11.7124 H       1  UNL1        0.1189
     25 C          66.6482   93.7699   14.1471 C.2     1  UNL1        0.0729
     26 O          66.3898   94.9336   13.2366 O.co2   1  UNL1       -0.5446
     27 O          67.6103   93.9104   15.2893 O.co2   1  UNL1       -0.5446
     28 C          61.3476   86.4347   11.1226 C.3     1  UNL1        0.1365
     29 C          61.8293   85.7729    9.8657 C.ar    1  UNL1        0.0133
     30 C          62.9875   84.8210    9.9157 C.ar    1  UNL1        0.0281
     31 C          63.4693   84.1592    8.6587 C.ar    1  UNL1        0.1399
     32 F          64.6275   83.2074    8.7088 F       1  UNL1       -0.2042
     33 C          62.7928   84.4493    7.3518 C.ar    1  UNL1        0.0305
     34 C          61.6346   85.4012    7.3018 C.ar    1  UNL1        0.0134
     35 C          61.1528   86.0630    8.5587 C.ar    1  UNL1        0.0557
     36 CL         59.9946   87.0149    8.5087 Cl      1  UNL1       -0.0825
@<TRIPOS>UNITY_ATOM_ATTR
26 1
charge -1
@<TRIPOS>BOND
     1     1     2    1
     2     2     3   ar
     3     3     4    2
     4     3     5   ar
     5     5     6   ar
     6     6     7   ar
     7     7     8   ar
     8     8    16    1
     9    16    17    1
    10    17    18    1
    11    18    19    1
    12    19    20    1
    13    20    21    1
    14    20    22    1
    15     8     9   ar
    16     9    28    1
    17    28    29    1
    18    29    30   ar
    19    30    31   ar
    20    31    32    1
    21    31    33   ar
    22    33    34   ar
    23    34    35   ar
    24    35    36    1
    25     6    10   ar
    26    10    11   ar
    27    11    12   ar
    28    12    13   ar
    29    13    25    1
    30    25    26   ar
    31    25    27   ar
    32    13    14   ar
    33    14    15   ar
    34    15     2   ar
    35     9     5   ar
    36    35    29   ar
    37    15    10   ar
    38    22    16    1
    39    21    23    1
    40    21    24    1
@<TRIPOS>MOLECULE
*****
 36 40 0 0 0
SMALL
GASTEIGER

@<TRIPOS>ATOM
      1 C          62.3038   91.2273   11.0330 C.3     1  UNL1        0.1336
      2 N          62.8136   90.0370   11.7901 N.ar    1  UNL1       -0.2922
      3 C          62.2511   88.6744   11.5125 C.ar    1  UNL1        0.2783
      4 O          61.1787   88.5022   10.4779 O.2     1  UNL1       -0.2653
      5 C          62.7609   87.4841   12.2696 C.ar    1  UNL1        0.1370
      6 C          63.8332   87.6562   13.3042 C.ar    1  UNL1        0.1060
      7 N          64.1357   86.3077   13.8872 N.ar    1  UNL1       -0.2134
      8 C          63.2502   85.3021   13.2129 C.ar    1  UNL1        0.2015
      9 N          62.4006   86.0291   12.2132 N.ar    1  UNL1       -0.2915
     10 C          64.3958   89.0188   13.5818 C.ar    1  UNL1        0.0352
     11 C          65.4682   89.1910   14.6163 C.ar    1  UNL1        0.0030
     12 C          66.0307   90.5535   14.8938 C.ar    1  UNL1        0.0013
     13 C          65.5209   91.7439   14.1368 C.ar    1  UNL1        0.0154
     14 C          64.4485   91.5717   13.1022 C.ar    1  UNL1        0.0184
     15 C          63.8860   90.2092   12.8247 C.ar    1  UNL1        0.0641
     16 N          63.2198   83.8281   13.4898 N.pl3   1  UNL1       -0.2782
     17 C          64.4791   83.0196   13.3871 C.3     1  UNL1        0.0937
     18 C          64.4487   81.5457   13.6639 C.3     1  UNL1        0.0229
     19 C          63.1591   80.8803   14.0435 C.3     1  UNL1        0.0190
     20 C          61.8998   81.6889   14.1463 C.3     1  UNL1        0.0710
     21 N          60.6102   81.0234   14.5259 N.3     1  UNL1       -0.3208
     22 C          61.9302   83.1628   13.8694 C.3     1  UNL1        0.1089
     23 H          60.7727   80.0278   14.6764 H       1  UNL1        0.1189
     24 H          59.9300   81.1474   13.7759 H       1  UNL1        0.1189
     25 C          66.0834   93.1064   14.4144 C.2     1  UNL1        0.0729
     26 O          66.7989   93.3737   15.7053 O.co2   1  UNL1       -0.5446
     27 O          65.9305   94.2017   13.4010 O.co2   1  UNL1       -0.5446
     28 C          61.3712   85.4099   11.3147 C.3     1  UNL1        0.1365
     29 C          61.5703   85.4193    9.8280 C.ar    1  UNL1        0.0133
     30 C          60.5605   86.0845    8.9404 C.ar    1  UNL1        0.0281
     31 C          60.7595   86.0940    7.4537 C.ar    1  UNL1        0.1399
     32 F          59.7498   86.7591    6.5660 F       1  UNL1       -0.2042
     33 C          61.9683   85.4382    6.8547 C.ar    1  UNL1        0.0305
     34 C          62.9780   84.7730    7.7423 C.ar    1  UNL1        0.0134
     35 C          62.7790   84.7636    9.2291 C.ar    1  UNL1        0.0557
     36 CL         63.7888   84.0984   10.1167 Cl      1  UNL1       -0.0825
@<TRIPOS>UNITY_ATOM_ATTR
26 1
charge -1
@<TRIPOS>BOND
     1     1     2    1
     2     2     3   ar
     3     3     4    2
     4     3     5   ar
     5     5     6   ar
     6     6     7   ar
     7     7     8   ar
     8     8    16    1
     9    16    17    1
    10    17    18    1
    11    18    19    1
    12    19    20    1
    13    20    21    1
    14    20    22    1
    15     8     9   ar
    16     9    28    1
    17    28    29    1
    18    29    30   ar
    19    30    31   ar
    20    31    32    1
    21    31    33   ar
    22    33    34   ar
    23    34    35   ar
    24    35    36    1
    25     6    10   ar
    26    10    11   ar
    27    11    12   ar
    28    12    13   ar
    29    13    25    1
    30    25    26   ar
    31    25    27   ar
    32    13    14   ar
    33    14    15   ar
    34    15     2   ar
    35     9     5   ar
    36    35    29   ar
    37    15    10   ar
    38    22    16    1
    39    21    23    1
    40    21    24    1
@<TRIPOS>MOLECULE
*****
 36 40 0 0 0
SMALL
GASTEIGER

@<TRIPOS>ATOM
      1 C          62.5389   91.4926    9.9415 C.3     1  UNL1        0.1336
      2 N          62.9185   90.4309   10.9308 N.ar    1  UNL1       -0.2922
      3 C          62.2750   89.0777   10.8626 C.ar    1  UNL1        0.2783
      4 O          61.2518   88.7861    9.8051 O.2     1  UNL1       -0.2653
      5 C          62.6545   88.0160   11.8519 C.ar    1  UNL1        0.1370
      6 C          63.6776   88.3075   12.9094 C.ar    1  UNL1        0.1060
      7 N          63.8489   87.0716   13.7419 N.ar    1  UNL1       -0.2134
      8 C          62.9316   86.0162   13.1990 C.ar    1  UNL1        0.2015
      9 N          62.1935   86.5999   12.0309 N.ar    1  UNL1       -0.2915
     10 C          64.3212   89.6608   12.9776 C.ar    1  UNL1        0.0352
     11 C          65.3443   89.9523   14.0351 C.ar    1  UNL1        0.0030
     12 C          65.9878   91.3055   14.1032 C.ar    1  UNL1        0.0013
     13 C          65.6082   92.3672   13.1139 C.ar    1  UNL1        0.0154
     14 C          64.5851   92.0757   12.0565 C.ar    1  UNL1        0.0184
     15 C          63.9416   90.7225   11.9883 C.ar    1  UNL1        0.0641
     16 N          62.7792   84.6219   13.7308 N.pl3   1  UNL1       -0.2782
     17 C          62.5631   84.3984   15.1982 C.3     1  UNL1        0.0937
     18 C          62.4107   83.0042   15.7301 C.3     1  UNL1        0.0229
     19 C          62.4745   81.8335   14.7945 C.3     1  UNL1        0.0190
     20 C          62.6906   82.0570   13.3271 C.3     1  UNL1        0.0710
     21 N          62.7544   80.8862   12.3915 N.3     1  UNL1       -0.3208
     22 C          62.8430   83.4512   12.7953 C.3     1  UNL1        0.1089
     23 H          62.6324   80.0221   12.9195 H       1  UNL1        0.1189
     24 H          63.6607   80.8738   11.9237 H       1  UNL1        0.1189
     25 C          66.2518   93.7204   13.1821 C.2     1  UNL1        0.0729
     26 O          66.4694   94.3812   14.5110 O.co2   1  UNL1       -0.5446
     27 O          66.6776   94.4128   11.9215 O.co2   1  UNL1       -0.5446
     28 C          61.1733   85.8918   11.1894 C.3     1  UNL1        0.1365
     29 C          61.3965   85.7340    9.7145 C.ar    1  UNL1        0.0133
     30 C          60.3898   86.2727    8.7418 C.ar    1  UNL1        0.0281
     31 C          60.6130   86.1150    7.2669 C.ar    1  UNL1        0.1399
     32 F          59.6063   86.6537    6.2941 F       1  UNL1       -0.2042
     33 C          61.8430   85.4185    6.7649 C.ar    1  UNL1        0.0305
     34 C          62.8497   84.8797    7.7376 C.ar    1  UNL1        0.0134
     35 C          62.6264   85.0375    9.2125 C.ar    1  UNL1        0.0557
     36 CL         63.6332   84.4988   10.1853 Cl      1  UNL1       -0.0825
@<TRIPOS>UNITY_ATOM_ATTR
26 1
charge -1
@<TRIPOS>BOND
     1     1     2    1
     2     2     3   ar
     3     3     4    2
     4     3     5   ar
     5     5     6   ar
     6     6     7   ar
     7     7     8   ar
     8     8    16    1
     9    16    17    1
    10    17    18    1
    11    18    19    1
    12    19    20    1
    13    20    21    1
    14    20    22    1
    15     8     9   ar
    16     9    28    1
    17    28    29    1
    18    29    30   ar
    19    30    31   ar
    20    31    32    1
    21    31    33   ar
    22    33    34   ar
    23    34    35   ar
    24    35    36    1
    25     6    10   ar
    26    10    11   ar
    27    11    12   ar
    28    12    13   ar
    29    13    25    1
    30    25    26   ar
    31    25    27   ar
    32    13    14   ar
    33    14    15   ar
    34    15     2   ar
    35     9     5   ar
    36    35    29   ar
    37    15    10   ar
    38    22    16    1
    39    21    23    1
    40    21    24    1
