@<TRIPOS>MOLECULE
*****
 49 55 0 0 0
SMALL
GASTEIGER

@<TRIPOS>ATOM
      1 C          59.8742   89.8703    6.9134 C.ar    1  UNL1        0.0481
      2 C          59.3685   88.4585    6.9425 C.ar    1  UNL1        0.0176
      3 C          59.3793   87.6842    8.2272 C.ar    1  UNL1        0.0382
      4 C          59.8959   88.3219    9.4828 C.ar    1  UNL1        0.1388
      5 C          60.4017   89.7338    9.4537 C.ar    1  UNL1        0.0382
      6 C          60.3908   90.5080    8.1690 C.ar    1  UNL1        0.0176
      7 N          59.8416   92.1929    3.0593 N.pl3   1  UNL1       -0.3041
      8 C          61.1279   91.6252    3.5819 C.3     1  UNL1        0.1122
      9 C          61.1388   90.8509    4.8666 C.3     1  UNL1        0.1122
     10 N          59.8634   90.6445    5.6287 N.pl3   1  UNL1       -0.3041
     11 C          58.5771   91.2123    5.1060 C.3     1  UNL1        0.1122
     12 C          58.5662   91.9865    3.8213 C.3     1  UNL1        0.1122
     13 C          59.8089   94.5154   -0.7949 C.ar    1  UNL1        0.0699
     14 C          59.6927   93.0202   -0.8194 C.ar    1  UNL1        0.0190
     15 C          59.7036   92.2460    0.4654 C.ar    1  UNL1        0.0160
     16 C          59.8307   92.9671    1.7745 C.ar    1  UNL1        0.0480
     17 C          59.9470   94.4624    1.7989 C.ar    1  UNL1        0.0160
     18 C          59.9361   95.2365    0.5142 C.ar    1  UNL1        0.0190
     19 N          60.3925   96.1111   -4.2848 N.ar    1  UNL1       -0.2024
     20 N          59.1700   96.8510   -3.8285 N.ar    1  UNL1       -0.1442
     21 C          58.8026   96.3433   -2.4657 C.ar    1  UNL1        0.2073
     22 N          59.7980   95.2896   -2.0797 N.ar    1  UNL1       -0.2398
     23 C          60.7806   95.1462   -3.2039 C.ar    1  UNL1        0.3522
     24 O          61.9466   94.2033   -3.2409 O.2     1  UNL1       -0.2444
     25 C          61.1022   96.3026   -5.5923 C.3     1  UNL1        0.1099
     26 C          62.5150   96.8061   -5.6121 C.3     1  UNL1        0.0265
     27 C          60.2021   94.5643   -7.3006 C.3     1  UNL1        0.0021
     28 C          60.3991   95.9905   -6.8801 C.3     1  UNL1        0.0245
     29 O          59.9067   87.5477   10.7675 O.3     1  UNL1       -0.4727
     30 C          61.2101   87.1197   11.3742 C.3     1  UNL1        0.2374
     31 C          62.0746   88.1227   12.0790 C.3     1  UNL1        0.1909
     32 C          61.9516   89.6146   11.9833 C.3     1  UNL1        0.1783
     33 O          63.0148   90.2238   12.8483 O.3     1  UNL1       -0.3266
     34 C          63.7950   89.1084   13.4786 C.3     1  UNL1        0.2315
     35 O          63.2139   87.8099   13.0031 O.3     1  UNL1       -0.3254
     36 C          64.5732   90.2225   14.1136 C.ar    1  UNL1        0.0410
     37 C          65.7317   90.8378   13.3860 C.ar    1  UNL1        0.0022
     38 C          66.5099   91.9519   14.0209 C.ar    1  UNL1        0.0113
     39 C          66.1297   92.4507   15.3834 C.ar    1  UNL1        0.0585
     40 CL         66.9079   93.5648   16.0184 Cl      1  UNL1       -0.0822
     41 C          64.9712   91.8355   16.1111 C.ar    1  UNL1        0.0226
     42 C          64.1930   90.7213   15.4762 C.ar    1  UNL1        0.0591
     43 CL         63.0346   90.1060   16.2038 Cl      1  UNL1       -0.0824
     44 C          64.7379   88.2260   14.2416 C.3     1  UNL1        0.1897
     45 N          64.2278   86.9836   14.9097 N.ar    1  UNL1       -0.2246
     46 C          64.4724   85.5749   14.4565 C.ar    1  UNL1        0.1974
     47 N          63.7792   84.6525   15.4149 N.ar    1  UNL1       -0.2007
     48 C          63.1061   85.4913   16.4606 C.ar    1  UNL1        0.2210
     49 N          63.3833   86.9320   16.1484 N.ar    1  UNL1       -0.1450
@<TRIPOS>BOND
     1    27    28    1
     2    28    25    1
     3    25    26    1
     4    25    19    1
     5    19    20   ar
     6    20    21   ar
     7    21    22   ar
     8    22    13    1
     9    13    14   ar
    10    14    15   ar
    11    15    16   ar
    12    16     7    1
    13     7     8    1
    14     8     9    1
    15     9    10    1
    16    10     1    1
    17     1     2   ar
    18     2     3   ar
    19     3     4   ar
    20     4    29    1
    21    29    30    1
    22    31    30    1
    23    31    32    1
    24    32    33    1
    25    33    34    1
    26    34    44    1
    27    44    45    1
    28    45    46   ar
    29    46    47   ar
    30    47    48   ar
    31    48    49   ar
    32    34    36    1
    33    36    37   ar
    34    37    38   ar
    35    38    39   ar
    36    39    40    1
    37    39    41   ar
    38    41    42   ar
    39    42    43    1
    40    34    35    1
    41     4     5   ar
    42     5     6   ar
    43    10    11    1
    44    11    12    1
    45    16    17   ar
    46    17    18   ar
    47    22    23   ar
    48    23    24    2
    49    23    19   ar
    50    18    13   ar
    51    12     7    1
    52     6     1   ar
    53    35    31    1
    54    49    45   ar
    55    42    36   ar
@<TRIPOS>MOLECULE
*****
 49 55 0 0 0
SMALL
GASTEIGER

@<TRIPOS>ATOM
      1 C          59.4252   93.2953    1.9037 C.ar    1  UNL1        0.0481
      2 C          58.6085   92.7779    0.7569 C.ar    1  UNL1        0.0176
      3 C          58.3708   93.6432   -0.4452 C.ar    1  UNL1        0.0382
      4 C          58.9497   95.0259   -0.5003 C.ar    1  UNL1        0.1388
      5 C          59.7664   95.5433    0.6467 C.ar    1  UNL1        0.0382
      6 C          60.0041   94.6780    1.8486 C.ar    1  UNL1        0.0176
      7 N          60.1384   90.6994    5.5096 N.pl3   1  UNL1       -0.3041
      8 C          58.7527   91.1780    5.1923 C.3     1  UNL1        0.1122
      9 C          58.5149   92.0434    3.9903 C.3     1  UNL1        0.1122
     10 N          59.6629   92.4300    3.1057 N.pl3   1  UNL1       -0.3041
     11 C          61.0486   91.9513    3.4230 C.3     1  UNL1        0.1122
     12 C          61.2864   91.0860    4.6249 C.3     1  UNL1        0.1122
     13 C          60.8516   88.1033    9.1154 C.ar    1  UNL1        0.0699
     14 C          60.0169   87.5941    7.9779 C.ar    1  UNL1        0.0190
     15 C          59.7792   88.4594    6.7760 C.ar    1  UNL1        0.0160
     16 C          60.3761   89.8340    6.7116 C.ar    1  UNL1        0.0480
     17 C          61.2108   90.3433    7.8491 C.ar    1  UNL1        0.0160
     18 C          61.4486   89.4779    9.0510 C.ar    1  UNL1        0.0190
     19 N          61.9242   85.4793   11.7668 N.ar    1  UNL1       -0.2024
     20 N          60.9863   86.3335   12.5673 N.ar    1  UNL1       -0.1442
     21 C          60.4703   87.4204   11.6715 C.ar    1  UNL1        0.2073
     22 N          61.0894   87.2380   10.3174 N.ar    1  UNL1       -0.2398
     23 C          61.9879   86.0383   10.3763 C.ar    1  UNL1        0.3522
     24 O          62.8064   85.4933    9.2437 O.2     1  UNL1       -0.2444
     25 C          62.6678   84.2772   12.2687 C.3     1  UNL1        0.1099
     26 C          63.3344   84.3145   13.6119 C.3     1  UNL1        0.0265
     27 C          62.5980   81.6881   12.0651 C.3     1  UNL1        0.0021
     28 C          62.7449   83.0377   11.4274 C.3     1  UNL1        0.0245
     29 O          58.7120   95.8912   -1.7022 O.3     1  UNL1       -0.4727
     30 C          59.7686   96.8560   -2.1525 C.3     1  UNL1        0.2374
     31 C          60.9119   96.3760   -2.9967 C.3     1  UNL1        0.1909
     32 C          60.8240   95.9202   -4.4231 C.3     1  UNL1        0.1783
     33 O          62.2015   95.5301   -4.8707 O.3     1  UNL1       -0.3266
     34 C          63.1407   95.7448   -3.7209 C.3     1  UNL1        0.2315
     35 O          62.3436   96.2676   -2.5627 O.3     1  UNL1       -0.3254
     36 C          64.1794   95.2450   -4.6807 C.ar    1  UNL1        0.0410
     37 C          64.9961   96.2197   -5.4764 C.ar    1  UNL1        0.0022
     38 C          66.0349   95.7199   -6.4363 C.ar    1  UNL1        0.0113
     39 C          66.2570   94.2456   -6.6003 C.ar    1  UNL1        0.0585
     40 CL         67.2958   93.7459   -7.5600 Cl      1  UNL1       -0.0822
     41 C          65.4404   93.2709   -5.8046 C.ar    1  UNL1        0.0226
     42 C          64.4016   93.7707   -4.8447 C.ar    1  UNL1        0.0591
     43 CL         63.5849   92.7961   -4.0490 Cl      1  UNL1       -0.0824
     44 C          64.2970   95.8550   -2.7718 C.3     1  UNL1        0.1897
     45 N          64.2810   95.0950   -1.4787 N.ar    1  UNL1       -0.2246
     46 C          63.1575   94.2401   -0.9723 C.ar    1  UNL1        0.1974
     47 N          63.5678   93.6732    0.3543 N.ar    1  UNL1       -0.2007
     48 C          64.9452   94.1778    0.6680 C.ar    1  UNL1        0.2210
     49 N          65.3859   95.0566   -0.4650 N.ar    1  UNL1       -0.1450
@<TRIPOS>BOND
     1    27    28    1
     2    28    25    1
     3    25    26    1
     4    25    19    1
     5    19    20   ar
     6    20    21   ar
     7    21    22   ar
     8    22    13    1
     9    13    14   ar
    10    14    15   ar
    11    15    16   ar
    12    16     7    1
    13     7     8    1
    14     8     9    1
    15     9    10    1
    16    10     1    1
    17     1     2   ar
    18     2     3   ar
    19     3     4   ar
    20     4    29    1
    21    29    30    1
    22    31    30    1
    23    31    32    1
    24    32    33    1
    25    33    34    1
    26    34    44    1
    27    44    45    1
    28    45    46   ar
    29    46    47   ar
    30    47    48   ar
    31    48    49   ar
    32    34    36    1
    33    36    37   ar
    34    37    38   ar
    35    38    39   ar
    36    39    40    1
    37    39    41   ar
    38    41    42   ar
    39    42    43    1
    40    34    35    1
    41     4     5   ar
    42     5     6   ar
    43    10    11    1
    44    11    12    1
    45    16    17   ar
    46    17    18   ar
    47    22    23   ar
    48    23    24    2
    49    23    19   ar
    50    18    13   ar
    51    12     7    1
    52     6     1   ar
    53    35    31    1
    54    49    45   ar
    55    42    36   ar
@<TRIPOS>MOLECULE
*****
 49 55 0 0 0
SMALL
GASTEIGER

@<TRIPOS>ATOM
      1 C          60.1243   89.5855    7.6177 C.ar    1  UNL1        0.0481
      2 C          60.1159   88.0868    7.5569 C.ar    1  UNL1        0.0176
      3 C          60.2741   87.2843    8.8143 C.ar    1  UNL1        0.0382
      4 C          60.4407   87.9805   10.1325 C.ar    1  UNL1        0.1388
      5 C          60.4491   89.4793   10.1932 C.ar    1  UNL1        0.0382
      6 C          60.2909   90.2818    8.9359 C.ar    1  UNL1        0.0176
      7 N          59.6499   91.9930    3.8456 N.pl3   1  UNL1       -0.3041
      8 C          58.4505   91.6759    4.6887 C.3     1  UNL1        0.1122
      9 C          58.6086   90.8734    5.9462 C.3     1  UNL1        0.1122
     10 N          59.9661   90.3880    6.3604 N.pl3   1  UNL1       -0.3041
     11 C          61.1655   90.7051    5.5171 C.3     1  UNL1        0.1122
     12 C          61.0074   91.5076    4.2598 C.3     1  UNL1        0.1122
     13 C          59.1754   94.4003    0.0734 C.ar    1  UNL1        0.0699
     14 C          58.5612   93.0356    0.1744 C.ar    1  UNL1        0.0190
     15 C          58.7194   92.2332    1.4317 C.ar    1  UNL1        0.0160
     16 C          59.4917   92.7955    2.5882 C.ar    1  UNL1        0.0480
     17 C          60.1059   94.1602    2.4872 C.ar    1  UNL1        0.0160
     18 C          59.9478   94.9626    1.2298 C.ar    1  UNL1        0.0190
     19 N          59.3010   96.0205   -3.4515 N.ar    1  UNL1       -0.2024
     20 N          58.2468   96.8550   -2.7863 N.ar    1  UNL1       -0.1442
     21 C          58.0715   96.3496   -1.3850 C.ar    1  UNL1        0.2073
     22 N          59.0173   95.2029   -1.1840 N.ar    1  UNL1       -0.2398
     23 C          59.7772   94.9995   -2.4612 C.ar    1  UNL1        0.3522
     24 O          60.8286   93.9579   -2.7053 O.2     1  UNL1       -0.2444
     25 C          59.7927   96.1793   -4.8597 C.3     1  UNL1        0.1099
     26 C          61.2074   96.6070   -5.1165 C.3     1  UNL1        0.0265
     27 C          58.2886   94.5410   -6.2026 C.3     1  UNL1        0.0021
     28 C          58.8698   95.9104   -6.0112 C.3     1  UNL1        0.0245
     29 O          60.5988   87.1780   11.3898 O.3     1  UNL1       -0.4727
     30 C          61.9631   86.7393   11.8328 C.3     1  UNL1        0.2374
     31 C          62.8611   87.6983   12.5568 C.3     1  UNL1        0.1909
     32 C          63.9495   87.3302   13.5211 C.3     1  UNL1        0.1783
     33 O          64.5894   88.5980   14.0038 O.3     1  UNL1       -0.3266
     34 C          63.8965   89.7497   13.3377 C.3     1  UNL1        0.2315
     35 O          62.8283   89.1936   12.4435 O.3     1  UNL1       -0.3254
     36 C          64.8620   90.5830   14.1273 C.ar    1  UNL1        0.0410
     37 C          66.2320   90.8610   13.5834 C.ar    1  UNL1        0.0022
     38 C          67.1976   91.6943   14.3730 C.ar    1  UNL1        0.0113
     39 C          66.7931   92.2495   15.7064 C.ar    1  UNL1        0.0585
     40 CL         67.7586   93.0828   16.4959 Cl      1  UNL1       -0.0822
     41 C          65.4231   91.9716   16.2503 C.ar    1  UNL1        0.0226
     42 C          64.4575   91.1383   15.4608 C.ar    1  UNL1        0.0591
     43 CL         63.0875   90.8603   16.0047 Cl      1  UNL1       -0.0824
     44 C          63.4054   91.0756   12.8368 C.3     1  UNL1        0.1897
     45 N          64.2945   91.9312   11.9839 N.ar    1  UNL1       -0.2246
     46 C          64.6084   91.7060   10.5346 C.ar    1  UNL1        0.1974
     47 N          65.5337   92.7978   10.0856 N.ar    1  UNL1       -0.2007
     48 C          65.7918   93.6979   11.2575 C.ar    1  UNL1        0.2210
     49 N          65.0259   93.1622   12.4308 N.ar    1  UNL1       -0.1450
@<TRIPOS>BOND
     1    27    28    1
     2    28    25    1
     3    25    26    1
     4    25    19    1
     5    19    20   ar
     6    20    21   ar
     7    21    22   ar
     8    22    13    1
     9    13    14   ar
    10    14    15   ar
    11    15    16   ar
    12    16     7    1
    13     7     8    1
    14     8     9    1
    15     9    10    1
    16    10     1    1
    17     1     2   ar
    18     2     3   ar
    19     3     4   ar
    20     4    29    1
    21    29    30    1
    22    31    30    1
    23    31    32    1
    24    32    33    1
    25    33    34    1
    26    34    44    1
    27    44    45    1
    28    45    46   ar
    29    46    47   ar
    30    47    48   ar
    31    48    49   ar
    32    34    36    1
    33    36    37   ar
    34    37    38   ar
    35    38    39   ar
    36    39    40    1
    37    39    41   ar
    38    41    42   ar
    39    42    43    1
    40    34    35    1
    41     4     5   ar
    42     5     6   ar
    43    10    11    1
    44    11    12    1
    45    16    17   ar
    46    17    18   ar
    47    22    23   ar
    48    23    24    2
    49    23    19   ar
    50    18    13   ar
    51    12     7    1
    52     6     1   ar
    53    35    31    1
    54    49    45   ar
    55    42    36   ar
@<TRIPOS>MOLECULE
*****
 49 55 0 0 0
SMALL
GASTEIGER

@<TRIPOS>ATOM
      1 C          60.4130   90.3916    6.8859 C.ar    1  UNL1        0.0481
      2 C          59.5393   89.2406    7.2881 C.ar    1  UNL1        0.0176
      3 C          59.6931   88.6207    8.6454 C.ar    1  UNL1        0.0382
      4 C          60.7206   89.1518    9.6005 C.ar    1  UNL1        0.1388
      5 C          61.5943   90.3029    9.1982 C.ar    1  UNL1        0.0382
      6 C          61.4405   90.9228    7.8410 C.ar    1  UNL1        0.0176
      7 N          59.9515   92.2512    2.8142 N.pl3   1  UNL1       -0.3041
      8 C          61.2992   91.7816    3.2759 C.3     1  UNL1        0.1122
      9 C          61.4531   91.1617    4.6332 C.3     1  UNL1        0.1122
     10 N          60.2592   91.0114    5.5287 N.pl3   1  UNL1       -0.3041
     11 C          58.9114   91.4810    5.0670 C.3     1  UNL1        0.1122
     12 C          58.7576   92.1009    3.7098 C.3     1  UNL1        0.1122
     13 C          59.4900   94.1106   -1.2575 C.ar    1  UNL1        0.0699
     14 C          59.5651   92.6190   -1.1184 C.ar    1  UNL1        0.0190
     15 C          59.7190   91.9992    0.2388 C.ar    1  UNL1        0.0160
     16 C          59.7977   92.8710    1.4569 C.ar    1  UNL1        0.0480
     17 C          59.7225   94.3627    1.3178 C.ar    1  UNL1        0.0160
     18 C          59.5687   94.9825   -0.0394 C.ar    1  UNL1        0.0190
     19 N          59.7450   95.3703   -4.9200 N.ar    1  UNL1       -0.2024
     20 N          58.4536   95.9985   -4.4867 N.ar    1  UNL1       -0.1442
     21 C          58.2009   95.6031   -3.0621 C.ar    1  UNL1        0.2073
     22 N          59.3361   94.7305   -2.6148 N.ar    1  UNL1       -0.2398
     23 C          60.2904   94.5867   -3.7631 C.ar    1  UNL1        0.3522
     24 O          61.5662   93.7978   -3.7558 O.2     1  UNL1       -0.2444
     25 C          60.3796   95.5026   -6.2727 C.3     1  UNL1        0.1099
     26 C          61.7224   96.1568   -6.4105 C.3     1  UNL1        0.0265
     27 C          58.6885   93.8553   -7.3573 C.3     1  UNL1        0.0021
     28 C          59.6714   94.9807   -7.4877 C.3     1  UNL1        0.0245
     29 O          60.8744   88.5320   10.9577 O.3     1  UNL1       -0.4727
     30 C          62.1721   87.8872   11.3450 C.3     1  UNL1        0.2374
     31 C          62.2221   86.4158   11.6326 C.3     1  UNL1        0.1909
     32 C          61.5836   85.3348   10.8118 C.3     1  UNL1        0.1783
     33 O          61.8862   84.0181   11.4634 O.3     1  UNL1       -0.3266
     34 C          62.7118   84.2853   12.6869 C.3     1  UNL1        0.2315
     35 O          62.9194   85.7672   12.7915 O.3     1  UNL1       -0.3254
     36 C          62.6753   82.7941   12.8450 C.ar    1  UNL1        0.0410
     37 C          61.9019   82.1783   13.9731 C.ar    1  UNL1        0.0022
     38 C          61.8652   80.6871   14.1313 C.ar    1  UNL1        0.0113
     39 C          62.6020   79.8118   13.1613 C.ar    1  UNL1        0.0585
     40 CL         62.5654   78.3206   13.3194 Cl      1  UNL1       -0.0822
     41 C          63.3754   80.4275   12.0332 C.ar    1  UNL1        0.0226
     42 C          63.4120   81.9188   11.8750 C.ar    1  UNL1        0.0591
     43 CL         64.1854   82.5346   10.7469 Cl      1  UNL1       -0.0824
     44 C          63.5298   84.2408   13.9435 C.3     1  UNL1        0.1897
     45 N          63.1485   85.0934   15.1172 N.ar    1  UNL1       -0.2246
     46 C          62.0117   84.8364   16.0614 C.ar    1  UNL1        0.1974
     47 N          61.9977   85.9369   17.0805 N.ar    1  UNL1       -0.2007
     48 C          63.1259   86.8741   16.7662 C.ar    1  UNL1        0.2210
     49 N          63.8371   86.3528   15.5528 N.ar    1  UNL1       -0.1450
@<TRIPOS>BOND
     1    27    28    1
     2    28    25    1
     3    25    26    1
     4    25    19    1
     5    19    20   ar
     6    20    21   ar
     7    21    22   ar
     8    22    13    1
     9    13    14   ar
    10    14    15   ar
    11    15    16   ar
    12    16     7    1
    13     7     8    1
    14     8     9    1
    15     9    10    1
    16    10     1    1
    17     1     2   ar
    18     2     3   ar
    19     3     4   ar
    20     4    29    1
    21    29    30    1
    22    31    30    1
    23    31    32    1
    24    32    33    1
    25    33    34    1
    26    34    44    1
    27    44    45    1
    28    45    46   ar
    29    46    47   ar
    30    47    48   ar
    31    48    49   ar
    32    34    36    1
    33    36    37   ar
    34    37    38   ar
    35    38    39   ar
    36    39    40    1
    37    39    41   ar
    38    41    42   ar
    39    42    43    1
    40    34    35    1
    41     4     5   ar
    42     5     6   ar
    43    10    11    1
    44    11    12    1
    45    16    17   ar
    46    17    18   ar
    47    22    23   ar
    48    23    24    2
    49    23    19   ar
    50    18    13   ar
    51    12     7    1
    52     6     1   ar
    53    35    31    1
    54    49    45   ar
    55    42    36   ar
