@<TRIPOS>MOLECULE
*****
 32 35 0 0 0
SMALL
GASTEIGER

@<TRIPOS>ATOM
      1 N          63.4946   90.5640   11.7203 N.ar    1  UNL1       -0.3048
      2 C          64.3850   91.6371   11.1672 C.ar    1  UNL1        0.0833
      3 C          65.0962   92.2873   12.3166 C.ar    1  UNL1        0.0600
      4 C          64.6454   91.6163   13.5802 C.ar    1  UNL1        0.0481
      5 C          65.0084   91.8374   15.0186 C.ar    1  UNL1        0.1416
      6 F          65.9982   92.9025   15.3872 F       1  UNL1       -0.2041
      7 C          64.3815   90.9935   16.0886 C.ar    1  UNL1        0.0297
      8 C          63.3917   89.9284   15.7200 C.ar    1  UNL1        0.0038
      9 C          63.0287   89.7072   14.2815 C.ar    1  UNL1        0.0177
     10 C          63.6556   90.5512   13.2116 C.ar    1  UNL1        0.0663
     11 C          60.8118   87.8584    9.3261 C.ar    1  UNL1        0.0141
     12 C          60.6489   89.3468    9.2363 C.ar    1  UNL1        0.0026
     13 C          61.5432   90.2486   10.0344 C.ar    1  UNL1        0.0176
     14 C          62.6003   89.6622   10.9222 C.ar    1  UNL1        0.0640
     15 C          62.7633   88.1737   11.0120 C.ar    1  UNL1        0.0176
     16 C          61.8690   87.2718   10.2139 C.ar    1  UNL1        0.0026
     17 O          58.5062   87.3700    8.2328 O.co2   1  UNL1       -0.5446
     18 C          59.9175   86.9565    8.5281 C.2     1  UNL1        0.0729
     19 O          60.4345   85.6413    8.0253 O.co2   1  UNL1       -0.5446
     20 C          66.0846   93.4114   12.2197 C.2     1  UNL1        0.1979
     21 O          66.2794   94.3412   13.3804 O.2     1  UNL1       -0.2865
     22 C          66.8785   93.6057   10.9618 C.ar    1  UNL1        0.0535
     23 C          67.9021   92.5872   10.5560 C.ar    1  UNL1        0.0607
     24 CL         68.1320   91.3743   11.4083 Cl      1  UNL1       -0.0821
     25 C          68.6959   92.7814    9.2982 C.ar    1  UNL1        0.0115
     26 C          68.4660   93.9943    8.4461 C.ar    1  UNL1        0.0008
     27 C          67.4423   95.0128    8.8518 C.ar    1  UNL1        0.0040
     28 C          66.6485   94.8186   10.1096 C.ar    1  UNL1        0.0753
     29 C          65.6248   95.8371   10.5153 C.3     1  UNL1        0.4187
     30 F          64.6011   96.8557   10.9210 F       1  UNL1       -0.1659
     31 F          64.5390   94.9721    9.9473 F       1  UNL1       -0.1659
     32 F          66.7106   96.7022   11.0834 F       1  UNL1       -0.1659
@<TRIPOS>UNITY_ATOM_ATTR
17 1
charge -1
@<TRIPOS>BOND
     1    17    18   ar
     2    18    19   ar
     3    18    11    1
     4    11    12   ar
     5    12    13   ar
     6    13    14   ar
     7    14     1    1
     8     1     2   ar
     9     2     3   ar
    10     3    20    1
    11    20    21    2
    12    20    22    1
    13    22    23   ar
    14    23    24    1
    15    23    25   ar
    16    25    26   ar
    17    26    27   ar
    18    27    28   ar
    19    28    29    1
    20    29    30    1
    21    29    31    1
    22    29    32    1
    23     3     4   ar
    24     4     5   ar
    25     5     6    1
    26     5     7   ar
    27     7     8   ar
    28     8     9   ar
    29     9    10   ar
    30    14    15   ar
    31    15    16   ar
    32    16    11   ar
    33    10     1   ar
    34    28    22   ar
    35    10     4   ar
@<TRIPOS>MOLECULE
*****
 32 35 0 0 0
SMALL
GASTEIGER

@<TRIPOS>ATOM
      1 N          62.3557   87.2241   11.2832 N.ar    1  UNL1       -0.3048
      2 C          62.6730   85.7787   11.5282 C.ar    1  UNL1        0.0833
      3 C          63.4966   85.6905   12.7788 C.ar    1  UNL1        0.0600
      4 C          63.6883   87.0814   13.3067 C.ar    1  UNL1        0.0481
      5 C          64.4137   87.6073   14.5096 C.ar    1  UNL1        0.1416
      6 F          65.1188   86.6594   15.4340 F       1  UNL1       -0.2041
      7 C          64.4341   89.0810   14.7882 C.ar    1  UNL1        0.0297
      8 C          63.7290   90.0289   13.8638 C.ar    1  UNL1        0.0038
      9 C          63.0035   89.5030   12.6609 C.ar    1  UNL1        0.0177
     10 C          62.9832   88.0292   12.3823 C.ar    1  UNL1        0.0663
     11 C          59.9447   88.8582    7.8529 C.ar    1  UNL1        0.0141
     12 C          60.5611   89.7945    8.8496 C.ar    1  UNL1        0.0026
     13 C          61.3648   89.2497    9.9930 C.ar    1  UNL1        0.0176
     14 C          61.5521   87.7688   10.1398 C.ar    1  UNL1        0.0640
     15 C          60.9357   86.8325    9.1430 C.ar    1  UNL1        0.0176
     16 C          60.1320   87.3772    7.9996 C.ar    1  UNL1        0.0026
     17 O          59.8201   90.1702    5.6140 O.co2   1  UNL1       -0.5446
     18 C          59.1411   89.4029    6.7094 C.2     1  UNL1        0.0729
     19 O          57.6585   89.1802    6.6615 O.co2   1  UNL1       -0.5446
     20 C          64.0341   84.4323   13.3936 C.2     1  UNL1        0.1979
     21 O          65.4124   84.4159   13.9850 O.2     1  UNL1       -0.2865
     22 C          63.1932   83.1903   13.4170 C.ar    1  UNL1        0.0535
     23 C          62.2946   82.9149   14.5860 C.ar    1  UNL1        0.0607
     24 CL         62.2368   83.8815   15.7316 Cl      1  UNL1       -0.0821
     25 C          61.4537   81.6730   14.6094 C.ar    1  UNL1        0.0115
     26 C          61.5115   80.7065   13.4638 C.ar    1  UNL1        0.0008
     27 C          62.4102   80.9819   12.2948 C.ar    1  UNL1        0.0040
     28 C          63.2510   82.2237   12.2713 C.ar    1  UNL1        0.0753
     29 C          64.1497   82.4991   11.1023 C.3     1  UNL1        0.4187
     30 F          65.0484   82.7746    9.9334 F       1  UNL1       -0.1659
     31 F          65.3353   82.0625   11.9109 F       1  UNL1       -0.1659
     32 F          62.9641   82.9358   10.2938 F       1  UNL1       -0.1659
@<TRIPOS>UNITY_ATOM_ATTR
17 1
charge -1
@<TRIPOS>BOND
     1    17    18   ar
     2    18    19   ar
     3    18    11    1
     4    11    12   ar
     5    12    13   ar
     6    13    14   ar
     7    14     1    1
     8     1     2   ar
     9     2     3   ar
    10     3    20    1
    11    20    21    2
    12    20    22    1
    13    22    23   ar
    14    23    24    1
    15    23    25   ar
    16    25    26   ar
    17    26    27   ar
    18    27    28   ar
    19    28    29    1
    20    29    30    1
    21    29    31    1
    22    29    32    1
    23     3     4   ar
    24     4     5   ar
    25     5     6    1
    26     5     7   ar
    27     7     8   ar
    28     8     9   ar
    29     9    10   ar
    30    14    15   ar
    31    15    16   ar
    32    16    11   ar
    33    10     1   ar
    34    28    22   ar
    35    10     4   ar
@<TRIPOS>MOLECULE
*****
 32 35 0 0 0
SMALL
GASTEIGER

@<TRIPOS>ATOM
      1 N          62.3587   87.1473   11.1688 N.ar    1  UNL1       -0.3048
      2 C          62.7475   85.7089   11.3414 C.ar    1  UNL1        0.0833
      3 C          63.5611   85.5961   12.5965 C.ar    1  UNL1        0.0600
      4 C          63.6751   86.9648   13.1996 C.ar    1  UNL1        0.0481
      5 C          64.3595   87.4620   14.4382 C.ar    1  UNL1        0.1416
      6 F          65.1027   86.5033   15.3207 F       1  UNL1       -0.2041
      7 C          64.3008   88.9179   14.7945 C.ar    1  UNL1        0.0297
      8 C          63.5577   89.8766   13.9120 C.ar    1  UNL1        0.0038
      9 C          62.8732   89.3794   12.6734 C.ar    1  UNL1        0.0177
     10 C          62.9319   87.9235   12.3172 C.ar    1  UNL1        0.0663
     11 C          59.9034   88.8372    7.7974 C.ar    1  UNL1        0.0141
     12 C          60.5552   89.7584    8.7855 C.ar    1  UNL1        0.0026
     13 C          61.3736   89.1950    9.9093 C.ar    1  UNL1        0.0176
     14 C          61.5403   87.7106   10.0450 C.ar    1  UNL1        0.0640
     15 C          60.8884   86.7893    9.0568 C.ar    1  UNL1        0.0176
     16 C          60.0700   87.3526    7.9330 C.ar    1  UNL1        0.0026
     17 O          59.7536   90.1606    5.5667 O.co2   1  UNL1       -0.5446
     18 C          59.0850   89.4005    6.6736 C.2     1  UNL1        0.0729
     19 O          57.5980   89.2037    6.6568 O.co2   1  UNL1       -0.5446
     20 C          64.1562   84.3359   13.1513 C.2     1  UNL1        0.1979
     21 O          65.5819   84.3215   13.6170 O.2     1  UNL1       -0.2865
     22 C          63.3255   83.0900   13.2402 C.ar    1  UNL1        0.0535
     23 C          63.3577   82.0861   12.1261 C.ar    1  UNL1        0.0607
     24 CL         64.2205   82.3281   10.9232 Cl      1  UNL1       -0.0821
     25 C          62.5270   80.8402   12.2150 C.ar    1  UNL1        0.0115
     26 C          61.6643   80.5984   13.4179 C.ar    1  UNL1        0.0008
     27 C          61.6321   81.6023   14.5320 C.ar    1  UNL1        0.0040
     28 C          62.4627   82.8481   14.4431 C.ar    1  UNL1        0.0753
     29 C          62.4306   83.8520   15.5572 C.3     1  UNL1        0.4187
     30 F          62.3985   84.8560   16.6712 F       1  UNL1       -0.1659
     31 F          61.1784   84.4472   14.9847 F       1  UNL1       -0.1659
     32 F          63.6829   83.2569   16.1296 F       1  UNL1       -0.1659
@<TRIPOS>UNITY_ATOM_ATTR
17 1
charge -1
@<TRIPOS>BOND
     1    17    18   ar
     2    18    19   ar
     3    18    11    1
     4    11    12   ar
     5    12    13   ar
     6    13    14   ar
     7    14     1    1
     8     1     2   ar
     9     2     3   ar
    10     3    20    1
    11    20    21    2
    12    20    22    1
    13    22    23   ar
    14    23    24    1
    15    23    25   ar
    16    25    26   ar
    17    26    27   ar
    18    27    28   ar
    19    28    29    1
    20    29    30    1
    21    29    31    1
    22    29    32    1
    23     3     4   ar
    24     4     5   ar
    25     5     6    1
    26     5     7   ar
    27     7     8   ar
    28     8     9   ar
    29     9    10   ar
    30    14    15   ar
    31    15    16   ar
    32    16    11   ar
    33    10     1   ar
    34    28    22   ar
    35    10     4   ar
@<TRIPOS>MOLECULE
*****
 32 35 0 0 0
SMALL
GASTEIGER

@<TRIPOS>ATOM
      1 N          62.2022   86.3592   11.6111 N.ar    1  UNL1       -0.3048
      2 C          62.5807   87.5821   12.3929 C.ar    1  UNL1        0.0833
      3 C          62.0997   88.7839   11.6351 C.ar    1  UNL1        0.0600
      4 C          61.4239   88.3038   10.3849 C.ar    1  UNL1        0.0481
      5 C          60.7591   89.0375    9.2582 C.ar    1  UNL1        0.1416
      6 F          60.6957   90.5361    9.2730 F       1  UNL1       -0.2041
      7 C          60.1576   88.2727    8.1166 C.ar    1  UNL1        0.0297
      8 C          60.2210   86.7741    8.1018 C.ar    1  UNL1        0.0038
      9 C          60.8858   86.0403    9.2285 C.ar    1  UNL1        0.0177
     10 C          61.4873   86.8052   10.3701 C.ar    1  UNL1        0.0663
     11 C          63.0608   82.1000   12.7828 C.ar    1  UNL1        0.0141
     12 C          62.6329   83.0924   13.8230 C.ar    1  UNL1        0.0026
     13 C          62.3467   84.5121   13.4324 C.ar    1  UNL1        0.0176
     14 C          62.4884   84.9395   12.0017 C.ar    1  UNL1        0.0640
     15 C          62.9163   83.9471   10.9613 C.ar    1  UNL1        0.0176
     16 C          63.2025   82.5274   11.3519 C.ar    1  UNL1        0.0026
     17 O          64.2181   80.3899   14.3594 O.co2   1  UNL1       -0.5446
     18 C          63.3469   80.6803   13.1733 C.2     1  UNL1        0.0729
     19 O          62.7620   79.5511   12.3779 O.co2   1  UNL1       -0.5446
     20 C          62.2653   90.2147   12.0538 C.2     1  UNL1        0.1979
     21 O          61.0587   91.0499   12.3642 O.2     1  UNL1       -0.2865
     22 C          63.6378   90.8104   12.1623 C.ar    1  UNL1        0.0535
     23 C          64.2196   91.5691   11.0065 C.ar    1  UNL1        0.0607
     24 CL         63.4289   91.7321    9.7422 Cl      1  UNL1       -0.0821
     25 C          65.5919   92.1647   11.1149 C.ar    1  UNL1        0.0115
     26 C          66.3825   92.0017   12.3791 C.ar    1  UNL1        0.0008
     27 C          65.8007   91.2430   13.5349 C.ar    1  UNL1        0.0040
     28 C          64.4284   90.6473   13.4266 C.ar    1  UNL1        0.0753
     29 C          63.8466   89.8886   14.5824 C.3     1  UNL1        0.4187
     30 F          63.2648   89.1299   15.7382 F       1  UNL1       -0.1659
     31 F          64.5310   88.6410   14.1079 F       1  UNL1       -0.1659
     32 F          63.1622   91.1362   15.0568 F       1  UNL1       -0.1659
@<TRIPOS>UNITY_ATOM_ATTR
17 1
charge -1
@<TRIPOS>BOND
     1    17    18   ar
     2    18    19   ar
     3    18    11    1
     4    11    12   ar
     5    12    13   ar
     6    13    14   ar
     7    14     1    1
     8     1     2   ar
     9     2     3   ar
    10     3    20    1
    11    20    21    2
    12    20    22    1
    13    22    23   ar
    14    23    24    1
    15    23    25   ar
    16    25    26   ar
    17    26    27   ar
    18    27    28   ar
    19    28    29    1
    20    29    30    1
    21    29    31    1
    22    29    32    1
    23     3     4   ar
    24     4     5   ar
    25     5     6    1
    26     5     7   ar
    27     7     8   ar
    28     8     9   ar
    29     9    10   ar
    30    14    15   ar
    31    15    16   ar
    32    16    11   ar
    33    10     1   ar
    34    28    22   ar
    35    10     4   ar
@<TRIPOS>MOLECULE
*****
 32 35 0 0 0
SMALL
GASTEIGER

@<TRIPOS>ATOM
      1 N          63.4857   90.6964   11.4722 N.ar    1  UNL1       -0.3048
      2 C          64.2687   91.8475   10.9139 C.ar    1  UNL1        0.0833
      3 C          65.0043   92.5004   12.0464 C.ar    1  UNL1        0.0600
      4 C          64.6759   91.7527   13.3047 C.ar    1  UNL1        0.0481
      5 C          65.1103   91.9431   14.7277 C.ar    1  UNL1        0.1416
      6 F          66.0488   93.0581   15.0826 F       1  UNL1       -0.2041
      7 C          64.6061   91.0186   15.7958 C.ar    1  UNL1        0.0297
      8 C          63.6675   89.9036   15.4409 C.ar    1  UNL1        0.0038
      9 C          63.2332   89.7132   14.0179 C.ar    1  UNL1        0.0177
     10 C          63.7374   90.6378   12.9498 C.ar    1  UNL1        0.0663
     11 C          60.8452   87.9081    9.1262 C.ar    1  UNL1        0.0141
     12 C          61.9404   87.3553    9.9893 C.ar    1  UNL1        0.0026
     13 C          62.8205   88.2847   10.7713 C.ar    1  UNL1        0.0176
     14 C          62.6056   89.7669   10.6902 C.ar    1  UNL1        0.0640
     15 C          61.5103   90.3198    9.8271 C.ar    1  UNL1        0.0176
     16 C          60.6302   89.3904    9.0451 C.ar    1  UNL1        0.0026
     17 O          58.4854   87.2178    8.2870 O.co2   1  UNL1       -0.5446
     18 C          59.9650   86.9787    8.3442 C.2     1  UNL1        0.0729
     19 O          60.5646   85.8102    7.6196 O.co2   1  UNL1       -0.5446
     20 C          65.9094   93.6918   11.9395 C.2     1  UNL1        0.1979
     21 O          66.2259   94.5051   13.1594 O.2     1  UNL1       -0.2865
     22 C          66.4981   94.0698   10.6126 C.ar    1  UNL1        0.0535
     23 C          66.0115   95.2957    9.8981 C.ar    1  UNL1        0.0607
     24 CL         64.9363   96.1435   10.5106 Cl      1  UNL1       -0.0821
     25 C          66.6001   95.6737    8.5713 C.ar    1  UNL1        0.0115
     26 C          67.6754   94.8259    7.9589 C.ar    1  UNL1        0.0008
     27 C          68.1619   93.6000    8.6734 C.ar    1  UNL1        0.0040
     28 C          67.5733   93.2219   10.0002 C.ar    1  UNL1        0.0753
     29 C          68.0599   91.9961   10.7147 C.3     1  UNL1        0.4187
     30 F          68.5465   90.7702   11.4292 F       1  UNL1       -0.1659
     31 F          67.9294   91.2053    9.4468 F       1  UNL1       -0.1659
     32 F          68.1904   92.7869   11.9826 F       1  UNL1       -0.1659
@<TRIPOS>UNITY_ATOM_ATTR
17 1
charge -1
@<TRIPOS>BOND
     1    17    18   ar
     2    18    19   ar
     3    18    11    1
     4    11    12   ar
     5    12    13   ar
     6    13    14   ar
     7    14     1    1
     8     1     2   ar
     9     2     3   ar
    10     3    20    1
    11    20    21    2
    12    20    22    1
    13    22    23   ar
    14    23    24    1
    15    23    25   ar
    16    25    26   ar
    17    26    27   ar
    18    27    28   ar
    19    28    29    1
    20    29    30    1
    21    29    31    1
    22    29    32    1
    23     3     4   ar
    24     4     5   ar
    25     5     6    1
    26     5     7   ar
    27     7     8   ar
    28     8     9   ar
    29     9    10   ar
    30    14    15   ar
    31    15    16   ar
    32    16    11   ar
    33    10     1   ar
    34    28    22   ar
    35    10     4   ar
@<TRIPOS>MOLECULE
*****
 32 35 0 0 0
SMALL
GASTEIGER

@<TRIPOS>ATOM
      1 N          63.6741   86.9283   13.9205 N.ar    1  UNL1       -0.3048
      2 C          63.9309   88.3064   13.3865 C.ar    1  UNL1        0.0833
      3 C          63.8164   89.2740   14.5269 C.ar    1  UNL1        0.0600
      4 C          63.4889   88.4941   15.7656 C.ar    1  UNL1        0.0481
      5 C          63.2594   88.9167   17.1864 C.ar    1  UNL1        0.1416
      6 F          63.3473   90.3665   17.5612 F       1  UNL1       -0.2041
      7 C          62.9420   87.8895   18.2324 C.ar    1  UNL1        0.0297
      8 C          62.8540   86.4398   17.8576 C.ar    1  UNL1        0.0038
      9 C          63.0835   86.0172   16.4368 C.ar    1  UNL1        0.0177
     10 C          63.4010   87.0443   15.3908 C.ar    1  UNL1        0.0663
     11 C          63.7159   83.1155   11.5307 C.ar    1  UNL1        0.0141
     12 C          64.5778   83.2450   12.7515 C.ar    1  UNL1        0.0026
     13 C          64.5638   84.5159   13.5481 C.ar    1  UNL1        0.0176
     14 C          63.6881   85.6574   13.1239 C.ar    1  UNL1        0.0640
     15 C          62.8261   85.5279   11.9030 C.ar    1  UNL1        0.0176
     16 C          62.8400   84.2569   11.1065 C.ar    1  UNL1        0.0026
     17 O          62.8115   80.7176   11.1039 O.co2   1  UNL1       -0.5446
     18 C          63.7298   81.8445   10.7342 C.2     1  UNL1        0.0729
     19 O          64.6621   81.7005    9.5680 O.co2   1  UNL1       -0.5446
     20 C          63.9976   90.7607   14.4433 C.2     1  UNL1        0.1979
     21 O          63.4849   91.6419   15.5435 O.2     1  UNL1       -0.2865
     22 C          64.6916   91.3663   13.2592 C.ar    1  UNL1        0.0535
     23 C          64.0120   91.3886   11.9222 C.ar    1  UNL1        0.0607
     24 CL         62.6385   90.8054   11.7692 Cl      1  UNL1       -0.0821
     25 C          64.7059   91.9941   10.7382 C.ar    1  UNL1        0.0115
     26 C          66.0794   92.5773   10.8913 C.ar    1  UNL1        0.0008
     27 C          66.7589   92.5550   12.2283 C.ar    1  UNL1        0.0040
     28 C          66.0651   91.9495   13.4123 C.ar    1  UNL1        0.0753
     29 C          66.7446   91.9271   14.7494 C.3     1  UNL1        0.4187
     30 F          67.4242   91.9048   16.0864 F       1  UNL1       -0.1659
     31 F          67.2343   90.5356   14.4772 F       1  UNL1       -0.1659
     32 F          66.2550   93.3186   15.0215 F       1  UNL1       -0.1659
@<TRIPOS>UNITY_ATOM_ATTR
17 1
charge -1
@<TRIPOS>BOND
     1    17    18   ar
     2    18    19   ar
     3    18    11    1
     4    11    12   ar
     5    12    13   ar
     6    13    14   ar
     7    14     1    1
     8     1     2   ar
     9     2     3   ar
    10     3    20    1
    11    20    21    2
    12    20    22    1
    13    22    23   ar
    14    23    24    1
    15    23    25   ar
    16    25    26   ar
    17    26    27   ar
    18    27    28   ar
    19    28    29    1
    20    29    30    1
    21    29    31    1
    22    29    32    1
    23     3     4   ar
    24     4     5   ar
    25     5     6    1
    26     5     7   ar
    27     7     8   ar
    28     8     9   ar
    29     9    10   ar
    30    14    15   ar
    31    15    16   ar
    32    16    11   ar
    33    10     1   ar
    34    28    22   ar
    35    10     4   ar
@<TRIPOS>MOLECULE
*****
 32 35 0 0 0
SMALL
GASTEIGER

@<TRIPOS>ATOM
      1 N          58.7021   93.3650   -1.5451 N.ar    1  UNL1       -0.3048
      2 C          58.9580   93.1494   -0.0829 C.ar    1  UNL1        0.0833
      3 C          59.9538   94.1758    0.3696 C.ar    1  UNL1        0.0600
      4 C          60.3134   95.0258   -0.8129 C.ar    1  UNL1        0.0481
      5 C          61.2453   96.1913   -0.9649 C.ar    1  UNL1        0.1416
      6 F          62.0189   96.6924    0.2185 F       1  UNL1       -0.2041
      7 C          61.4035   96.8557   -2.3004 C.ar    1  UNL1        0.0297
      8 C          60.6299   96.3546   -3.4838 C.ar    1  UNL1        0.0038
      9 C          59.6980   95.1891   -3.3317 C.ar    1  UNL1        0.0177
     10 C          59.5397   94.5247   -1.9963 C.ar    1  UNL1        0.0663
     11 C          55.9113   90.9560   -4.1256 C.ar    1  UNL1        0.0141
     12 C          55.6344   91.1071   -2.6591 C.ar    1  UNL1        0.0026
     13 C          56.5646   91.9101   -1.7990 C.ar    1  UNL1        0.0176
     14 C          57.7718   92.5620   -2.4052 C.ar    1  UNL1        0.0640
     15 C          58.0488   92.4109   -3.8718 C.ar    1  UNL1        0.0176
     16 C          57.1186   91.6079   -4.7319 C.ar    1  UNL1        0.0026
     17 O          54.7277   90.5661   -6.4052 O.co2   1  UNL1       -0.5446
     18 C          54.9811   90.1529   -4.9857 C.2     1  UNL1        0.0729
     19 O          54.3043   88.9368   -4.4262 O.co2   1  UNL1       -0.5446
     20 C          60.4951   94.3259    1.7605 C.2     1  UNL1        0.1979
     21 O          60.2182   95.5757    2.5422 O.2     1  UNL1       -0.2865
     22 C          61.3133   93.2260    2.3696 C.ar    1  UNL1        0.0535
     23 C          60.7166   92.3445    3.4264 C.ar    1  UNL1        0.0607
     24 CL         59.3017   92.5629    3.8741 Cl      1  UNL1       -0.0821
     25 C          61.5347   91.2447    4.0356 C.ar    1  UNL1        0.0115
     26 C          62.9496   91.0264    3.5878 C.ar    1  UNL1        0.0008
     27 C          63.5463   91.9079    2.5310 C.ar    1  UNL1        0.0040
     28 C          62.7282   93.0077    1.9219 C.ar    1  UNL1        0.0753
     29 C          63.3249   93.8892    0.8651 C.3     1  UNL1        0.4187
     30 F          63.9216   94.7708   -0.1918 F       1  UNL1       -0.1659
     31 F          62.8766   92.9247   -0.1926 F       1  UNL1       -0.1659
     32 F          63.7732   94.8538    1.9227 F       1  UNL1       -0.1659
@<TRIPOS>UNITY_ATOM_ATTR
17 1
charge -1
@<TRIPOS>BOND
     1    17    18   ar
     2    18    19   ar
     3    18    11    1
     4    11    12   ar
     5    12    13   ar
     6    13    14   ar
     7    14     1    1
     8     1     2   ar
     9     2     3   ar
    10     3    20    1
    11    20    21    2
    12    20    22    1
    13    22    23   ar
    14    23    24    1
    15    23    25   ar
    16    25    26   ar
    17    26    27   ar
    18    27    28   ar
    19    28    29    1
    20    29    30    1
    21    29    31    1
    22    29    32    1
    23     3     4   ar
    24     4     5   ar
    25     5     6    1
    26     5     7   ar
    27     7     8   ar
    28     8     9   ar
    29     9    10   ar
    30    14    15   ar
    31    15    16   ar
    32    16    11   ar
    33    10     1   ar
    34    28    22   ar
    35    10     4   ar
@<TRIPOS>MOLECULE
*****
 32 35 0 0 0
SMALL
GASTEIGER

@<TRIPOS>ATOM
      1 N          62.8795   87.0441   12.1101 N.ar    1  UNL1       -0.3048
      2 C          63.4700   88.1493   12.9347 C.ar    1  UNL1        0.0833
      3 C          63.0837   89.4547   12.3049 C.ar    1  UNL1        0.0600
      4 C          62.2544   89.1563   11.0911 C.ar    1  UNL1        0.0481
      5 C          61.5979   90.0487   10.0799 C.ar    1  UNL1        0.1416
      6 F          61.7241   91.5386   10.2002 F       1  UNL1       -0.2041
      7 C          60.8152   89.4513    8.9483 C.ar    1  UNL1        0.0297
      8 C          60.6890   87.9615    8.8280 C.ar    1  UNL1        0.0038
      9 C          61.3455   87.0691    9.8392 C.ar    1  UNL1        0.0177
     10 C          62.1282   87.6665   10.9707 C.ar    1  UNL1        0.0663
     11 C          63.2896   82.6354   12.9135 C.ar    1  UNL1        0.0141
     12 C          63.7619   83.6304   13.9317 C.ar    1  UNL1        0.0026
     13 C          63.6252   85.1000   13.6639 C.ar    1  UNL1        0.0176
     14 C          63.0162   85.5746   12.3779 C.ar    1  UNL1        0.0640
     15 C          62.5439   84.5795   11.3596 C.ar    1  UNL1        0.0176
     16 C          62.6807   83.1099   11.6274 C.ar    1  UNL1        0.0026
     17 O          64.1448   80.6911   14.4094 O.co2   1  UNL1       -0.5446
     18 C          63.4264   81.1658   13.1813 C.2     1  UNL1        0.0729
     19 O          62.8447   80.1712   12.2210 O.co2   1  UNL1       -0.5446
     20 C          63.4605   90.8190   12.8016 C.2     1  UNL1        0.1979
     21 O          62.4169   91.8903   12.9155 O.2     1  UNL1       -0.2865
     22 C          64.8810   91.1119   13.1845 C.ar    1  UNL1        0.0535
     23 C          65.4524   90.5339   14.4452 C.ar    1  UNL1        0.0607
     24 CL         64.6032   89.6629   15.3230 Cl      1  UNL1       -0.0821
     25 C          66.8727   90.8267   14.8282 C.ar    1  UNL1        0.0115
     26 C          67.7218   91.6976   13.9503 C.ar    1  UNL1        0.0008
     27 C          67.1504   92.2756   12.6896 C.ar    1  UNL1        0.0040
     28 C          65.7300   91.9828   12.3067 C.ar    1  UNL1        0.0753
     29 C          65.1587   92.5608   11.0459 C.3     1  UNL1        0.4187
     30 F          64.5873   93.1388    9.7852 F       1  UNL1       -0.1659
     31 F          65.4050   93.9449   11.5689 F       1  UNL1       -0.1659
     32 F          64.9123   91.1767   10.5230 F       1  UNL1       -0.1659
@<TRIPOS>UNITY_ATOM_ATTR
17 1
charge -1
@<TRIPOS>BOND
     1    17    18   ar
     2    18    19   ar
     3    18    11    1
     4    11    12   ar
     5    12    13   ar
     6    13    14   ar
     7    14     1    1
     8     1     2   ar
     9     2     3   ar
    10     3    20    1
    11    20    21    2
    12    20    22    1
    13    22    23   ar
    14    23    24    1
    15    23    25   ar
    16    25    26   ar
    17    26    27   ar
    18    27    28   ar
    19    28    29    1
    20    29    30    1
    21    29    31    1
    22    29    32    1
    23     3     4   ar
    24     4     5   ar
    25     5     6    1
    26     5     7   ar
    27     7     8   ar
    28     8     9   ar
    29     9    10   ar
    30    14    15   ar
    31    15    16   ar
    32    16    11   ar
    33    10     1   ar
    34    28    22   ar
    35    10     4   ar
@<TRIPOS>MOLECULE
*****
 32 35 0 0 0
SMALL
GASTEIGER

@<TRIPOS>ATOM
      1 N          62.7426   86.7468   10.9317 N.ar    1  UNL1       -0.3048
      2 C          62.6939   88.2144   11.2379 C.ar    1  UNL1        0.0833
      3 C          63.1281   88.4056   12.6609 C.ar    1  UNL1        0.0600
      4 C          63.4452   87.0562   13.2342 C.ar    1  UNL1        0.0481
      5 C          63.9200   86.6286   14.5912 C.ar    1  UNL1        0.1416
      6 F          64.1583   87.6539   15.6599 F       1  UNL1       -0.2041
      7 C          64.1566   85.1758   14.8796 C.ar    1  UNL1        0.0297
      8 C          63.9184   84.1505   13.8109 C.ar    1  UNL1        0.0038
      9 C          63.4435   84.5781   12.4538 C.ar    1  UNL1        0.0177
     10 C          63.2069   86.0310   12.1655 C.ar    1  UNL1        0.0663
     11 C          61.6821   84.8279    7.0019 C.ar    1  UNL1        0.0141
     12 C          60.6953   85.7245    7.6892 C.ar    1  UNL1        0.0026
     13 C          61.0489   86.3641    8.9992 C.ar    1  UNL1        0.0176
     14 C          62.3891   86.1072    9.6218 C.ar    1  UNL1        0.0640
     15 C          63.3759   85.2105    8.9344 C.ar    1  UNL1        0.0176
     16 C          63.0224   84.5709    7.6245 C.ar    1  UNL1        0.0026
     17 O          60.2616   83.1356    5.6352 O.co2   1  UNL1       -0.5446
     18 C          61.3286   84.1883    5.6919 C.2     1  UNL1        0.0729
     19 O          62.0420   84.6015    4.4388 O.co2   1  UNL1       -0.5446
     20 C          63.2278   89.7162   13.3837 C.2     1  UNL1        0.1979
     21 O          62.4222   89.9501   14.6271 O.2     1  UNL1       -0.2865
     22 C          64.1332   90.7929   12.8631 C.ar    1  UNL1        0.0535
     23 C          65.3485   91.1941   13.6454 C.ar    1  UNL1        0.0607
     24 CL         65.6584   90.5185   14.9484 Cl      1  UNL1       -0.0821
     25 C          66.2539   92.2708   13.1249 C.ar    1  UNL1        0.0115
     26 C          65.9440   92.9463   11.8219 C.ar    1  UNL1        0.0008
     27 C          64.7286   92.5451   11.0396 C.ar    1  UNL1        0.0040
     28 C          63.8232   91.4684   11.5602 C.ar    1  UNL1        0.0753
     29 C          62.6079   91.0672   10.7778 C.3     1  UNL1        0.4187
     30 F          61.3926   90.6661    9.9955 F       1  UNL1       -0.1659
     31 F          63.4709   90.7776    9.5857 F       1  UNL1       -0.1659
     32 F          61.7449   91.3569   11.9700 F       1  UNL1       -0.1659
@<TRIPOS>UNITY_ATOM_ATTR
17 1
charge -1
@<TRIPOS>BOND
     1    17    18   ar
     2    18    19   ar
     3    18    11    1
     4    11    12   ar
     5    12    13   ar
     6    13    14   ar
     7    14     1    1
     8     1     2   ar
     9     2     3   ar
    10     3    20    1
    11    20    21    2
    12    20    22    1
    13    22    23   ar
    14    23    24    1
    15    23    25   ar
    16    25    26   ar
    17    26    27   ar
    18    27    28   ar
    19    28    29    1
    20    29    30    1
    21    29    31    1
    22    29    32    1
    23     3     4   ar
    24     4     5   ar
    25     5     6    1
    26     5     7   ar
    27     7     8   ar
    28     8     9   ar
    29     9    10   ar
    30    14    15   ar
    31    15    16   ar
    32    16    11   ar
    33    10     1   ar
    34    28    22   ar
    35    10     4   ar
