@<TRIPOS>MOLECULE
*****
 32 36 0 0 0
SMALL
GASTEIGER

@<TRIPOS>ATOM
      1 C          62.7934   86.6489   11.8530 C.2     1  UNL1        0.2506
      2 O          63.4633   87.3357   13.0061 O.2     1  UNL1       -0.2699
      3 N          61.8287   87.4044   10.9878 N.am    1  UNL1       -0.2723
      4 C          61.1588   86.7176    9.8348 C.3     1  UNL1        0.1257
      5 C          60.1941   87.4732    8.9696 C.3     1  UNL1        0.1637
      6 O          59.8992   88.9154    9.2575 O.3     1  UNL1       -0.3502
      7 C          60.5691   89.6022   10.4106 C.3     1  UNL1        0.1622
      8 C          61.5338   88.8467   11.2757 C.3     1  UNL1        0.1096
      9 C          63.7438   81.8265   13.5388 C.3     1  UNL1        0.0327
     10 C          63.5635   82.7955   12.4080 C.ar    1  UNL1       -0.0023
     11 C          63.6781   82.3221   10.9892 C.ar    1  UNL1       -0.0027
     12 C          63.4978   83.2910    9.8584 C.ar    1  UNL1       -0.0001
     13 C          63.2029   84.7332   10.1464 C.ar    1  UNL1        0.0061
     14 C          63.0883   85.2066   11.5651 C.ar    1  UNL1        0.0726
     15 C          63.2686   84.2377   12.6959 C.ar    1  UNL1        0.1032
     16 N          63.1540   84.7111   14.1146 N.ar    1  UNL1       -0.1480
     17 N          64.2671   85.2708   14.9500 N.ar    1  UNL1       -0.1447
     18 C          63.7073   85.6135   16.2987 C.ar    1  UNL1        0.1446
     19 C          62.2482   85.2656   16.2970 C.ar    1  UNL1        0.1446
     20 N          61.9063   84.7079   14.9471 N.ar    1  UNL1       -0.1447
     21 C          62.2037   89.5335   12.4288 C.3     1  UNL1        0.0487
     22 C          63.2799   90.5472   12.1755 C.ar    1  UNL1       -0.0203
     23 C          63.4969   91.0804   10.7904 C.ar    1  UNL1       -0.0042
     24 C          64.5732   92.0941   10.5370 C.ar    1  UNL1       -0.0002
     25 C          65.4324   92.5745   11.6688 C.ar    1  UNL1        0.0031
     26 C          65.2154   92.0412   13.0540 C.ar    1  UNL1        0.0388
     27 C          64.1391   91.0276   13.3073 C.ar    1  UNL1       -0.0011
     28 C          66.0746   92.5217   14.1858 C.ar    1  UNL1        0.2037
     29 N          67.4695   93.0601   14.0668 N.ar    1  UNL1       -0.1829
     30 C          67.9468   93.4192   15.4427 C.ar    1  UNL1        0.3164
     31 O          66.8468   93.1027   16.4122 O.2     1  UNL1       -0.3274
     32 N          65.6897   92.5480   15.6354 N.ar    1  UNL1       -0.0554
@<TRIPOS>BOND
     1     9    10    1
     2    10    11   ar
     3    11    12   ar
     4    12    13   ar
     5    13    14   ar
     6    14     1    1
     7     1     2    2
     8     1     3   am
     9     3     4    1
    10     4     5    1
    11     5     6    1
    12     6     7    1
    13     7     8    1
    14     8    21    1
    15    21    22    1
    16    22    23   ar
    17    23    24   ar
    18    24    25   ar
    19    25    26   ar
    20    26    28    1
    21    28    29   ar
    22    29    30   ar
    23    30    31   ar
    24    31    32   ar
    25    26    27   ar
    26    14    15   ar
    27    15    16    1
    28    16    17   ar
    29    17    18   ar
    30    18    19   ar
    31    19    20   ar
    32    15    10   ar
    33    20    16   ar
    34     8     3    1
    35    27    22   ar
    36    32    28   ar
@<TRIPOS>MOLECULE
*****
 32 36 0 0 0
SMALL
GASTEIGER

@<TRIPOS>ATOM
      1 C          63.0574   87.0393   12.3914 C.2     1  UNL1        0.2506
      2 O          63.6455   87.4464   13.7098 O.2     1  UNL1       -0.2699
      3 N          62.4144   88.0667   11.5077 N.am    1  UNL1       -0.2723
      4 C          61.8263   87.6596   10.1892 C.3     1  UNL1        0.1257
      5 C          61.1832   88.6871    9.3055 C.3     1  UNL1        0.1637
      6 O          61.1283   90.1216    9.7403 O.3     1  UNL1       -0.3502
      7 C          61.7164   90.5287   11.0588 C.3     1  UNL1        0.1622
      8 C          62.3594   89.5013   11.9424 C.3     1  UNL1        0.1096
      9 C          63.2155   81.9818   13.5733 C.3     1  UNL1        0.0327
     10 C          63.1914   83.0760   12.5475 C.ar    1  UNL1       -0.0023
     11 C          63.2222   82.7357   11.0870 C.ar    1  UNL1       -0.0027
     12 C          63.1981   83.8298   10.0612 C.ar    1  UNL1       -0.0001
     13 C          63.1432   85.2643   10.4960 C.ar    1  UNL1        0.0061
     14 C          63.1123   85.6047   11.9566 C.ar    1  UNL1        0.0726
     15 C          63.1365   84.5106   12.9823 C.ar    1  UNL1        0.1032
     16 N          63.1056   84.8509   14.4429 N.ar    1  UNL1       -0.1480
     17 N          64.2896   85.2165   15.2882 N.ar    1  UNL1       -0.1447
     18 C          63.8012   85.4770   16.6823 C.ar    1  UNL1        0.1446
     19 C          62.3153   85.2724   16.6986 C.ar    1  UNL1        0.1446
     20 N          61.8854   84.8855   15.3146 N.ar    1  UNL1       -0.1447
     21 C          62.9475   89.9084   13.2609 C.3     1  UNL1        0.0487
     22 C          64.2410   90.6667   13.3031 C.ar    1  UNL1       -0.0203
     23 C          65.1644   90.5099   14.4747 C.ar    1  UNL1       -0.0042
     24 C          66.4580   91.2682   14.5169 C.ar    1  UNL1       -0.0002
     25 C          66.8281   92.1832   13.3874 C.ar    1  UNL1        0.0031
     26 C          65.9047   92.3400   12.2157 C.ar    1  UNL1        0.0388
     27 C          64.6112   91.5817   12.1736 C.ar    1  UNL1       -0.0011
     28 C          66.2749   93.2550   11.0863 C.ar    1  UNL1        0.2037
     29 N          67.4487   93.0907   10.1669 N.ar    1  UNL1       -0.1829
     30 C          67.4355   94.2291    9.1903 C.ar    1  UNL1        0.3164
     31 O          66.2535   95.0970    9.5060 O.2     1  UNL1       -0.3274
     32 N          65.5361   94.4950   10.6778 N.ar    1  UNL1       -0.0554
@<TRIPOS>BOND
     1     9    10    1
     2    10    11   ar
     3    11    12   ar
     4    12    13   ar
     5    13    14   ar
     6    14     1    1
     7     1     2    2
     8     1     3   am
     9     3     4    1
    10     4     5    1
    11     5     6    1
    12     6     7    1
    13     7     8    1
    14     8    21    1
    15    21    22    1
    16    22    23   ar
    17    23    24   ar
    18    24    25   ar
    19    25    26   ar
    20    26    28    1
    21    28    29   ar
    22    29    30   ar
    23    30    31   ar
    24    31    32   ar
    25    26    27   ar
    26    14    15   ar
    27    15    16    1
    28    16    17   ar
    29    17    18   ar
    30    18    19   ar
    31    19    20   ar
    32    15    10   ar
    33    20    16   ar
    34     8     3    1
    35    27    22   ar
    36    32    28   ar
@<TRIPOS>MOLECULE
*****
 32 36 0 0 0
SMALL
GASTEIGER

@<TRIPOS>ATOM
      1 C          62.7870   88.5179   11.5195 C.2     1  UNL1        0.2506
      2 O          62.7840   90.0167   11.4610 O.2     1  UNL1       -0.2699
      3 N          63.3745   87.8148   12.7071 N.am    1  UNL1       -0.2723
      4 C          63.3774   86.3160   12.7657 C.3     1  UNL1        0.1257
      5 C          63.9649   85.6129   13.9534 C.3     1  UNL1        0.1637
      6 O          64.5495   86.4087   15.0825 O.3     1  UNL1       -0.3502
      7 C          64.5466   87.9075   15.0239 C.3     1  UNL1        0.1622
      8 C          63.9591   88.6106   13.8363 C.3     1  UNL1        0.1096
      9 C          58.7412   87.2990    8.4951 C.3     1  UNL1        0.0327
     10 C          60.1795   87.1127    8.8782 C.ar    1  UNL1       -0.0023
     11 C          61.0332   86.1306    8.1321 C.ar    1  UNL1       -0.0027
     12 C          62.4714   85.9442    8.5151 C.ar    1  UNL1       -0.0001
     13 C          63.0560   86.7400    9.6442 C.ar    1  UNL1        0.0061
     14 C          62.2023   87.7221   10.3903 C.ar    1  UNL1        0.0726
     15 C          60.7641   87.9084   10.0073 C.ar    1  UNL1        0.1032
     16 N          59.9104   88.8906   10.7535 N.ar    1  UNL1       -0.1480
     17 N          59.1298   88.6093   12.0030 N.ar    1  UNL1       -0.1447
     18 C          58.4244   89.8713   12.4029 C.ar    1  UNL1        0.1446
     19 C          58.7691   90.9325   11.4004 C.ar    1  UNL1        0.1446
     20 N          59.6875   90.3264   10.3810 N.ar    1  UNL1       -0.1447
     21 C          63.9562   90.1095   13.7778 C.3     1  UNL1        0.0487
     22 C          65.2536   90.8607   13.7314 C.ar    1  UNL1       -0.0203
     23 C          66.1536   90.8780   14.9313 C.ar    1  UNL1       -0.0042
     24 C          67.4511   91.6294   14.8849 C.ar    1  UNL1       -0.0002
     25 C          67.8486   92.3633   13.6386 C.ar    1  UNL1        0.0031
     26 C          66.9485   92.3460   12.4386 C.ar    1  UNL1        0.0388
     27 C          65.6511   91.5947   12.4851 C.ar    1  UNL1       -0.0011
     28 C          67.3460   93.0800   11.1923 C.ar    1  UNL1        0.2037
     29 N          66.9037   94.4592   10.8023 N.ar    1  UNL1       -0.1829
     30 C          67.5399   94.7952    9.4862 C.ar    1  UNL1        0.3164
     31 O          68.3755   93.6237    9.0627 O.2     1  UNL1       -0.3274
     32 N          68.2557   92.5635   10.1171 N.ar    1  UNL1       -0.0554
@<TRIPOS>BOND
     1     9    10    1
     2    10    11   ar
     3    11    12   ar
     4    12    13   ar
     5    13    14   ar
     6    14     1    1
     7     1     2    2
     8     1     3   am
     9     3     4    1
    10     4     5    1
    11     5     6    1
    12     6     7    1
    13     7     8    1
    14     8    21    1
    15    21    22    1
    16    22    23   ar
    17    23    24   ar
    18    24    25   ar
    19    25    26   ar
    20    26    28    1
    21    28    29   ar
    22    29    30   ar
    23    30    31   ar
    24    31    32   ar
    25    26    27   ar
    26    14    15   ar
    27    15    16    1
    28    16    17   ar
    29    17    18   ar
    30    18    19   ar
    31    19    20   ar
    32    15    10   ar
    33    20    16   ar
    34     8     3    1
    35    27    22   ar
    36    32    28   ar
@<TRIPOS>MOLECULE
*****
 32 36 0 0 0
SMALL
GASTEIGER

@<TRIPOS>ATOM
      1 C          62.7179   88.9523   11.6407 C.2     1  UNL1        0.2506
      2 O          62.9048   87.7990   12.5814 O.2     1  UNL1       -0.2699
      3 N          61.6883   88.8735   10.5528 N.am    1  UNL1       -0.2723
      4 C          61.5013   90.0269    9.6121 C.3     1  UNL1        0.1257
      5 C          60.4716   89.9480    8.5241 C.3     1  UNL1        0.1637
      6 O          59.6290   88.7158    8.3768 O.3     1  UNL1       -0.3502
      7 C          59.8160   87.5625    9.3175 C.3     1  UNL1        0.1622
      8 C          60.8456   87.6413   10.4054 C.3     1  UNL1        0.1096
      9 C          65.5186   92.1590   14.6195 C.3     1  UNL1        0.0327
     10 C          64.9609   91.7878   13.2774 C.ar    1  UNL1       -0.0023
     11 C          65.2458   92.6488   12.0826 C.ar    1  UNL1       -0.0027
     12 C          64.6881   92.2777   10.7406 C.ar    1  UNL1       -0.0001
     13 C          63.8455   91.0455   10.5933 C.ar    1  UNL1        0.0061
     14 C          63.5606   90.1845   11.7881 C.ar    1  UNL1        0.0726
     15 C          64.1183   90.5557   13.1301 C.ar    1  UNL1        0.1032
     16 N          63.8333   89.6947   14.3249 N.ar    1  UNL1       -0.1480
     17 N          64.5288   88.4122   14.6735 N.ar    1  UNL1       -0.1447
     18 C          63.9281   87.8899   15.9449 C.ar    1  UNL1        0.1446
     19 C          62.8615   88.8496   16.3821 C.ar    1  UNL1        0.1446
     20 N          62.8029   89.9650   15.3809 N.ar    1  UNL1       -0.1447
     21 C          61.0326   86.4880   11.3461 C.3     1  UNL1        0.0487
     22 C          61.9518   85.3613   10.9779 C.ar    1  UNL1       -0.0203
     23 C          62.7018   85.3991    9.6795 C.ar    1  UNL1       -0.0042
     24 C          63.6211   84.2723    9.3113 C.ar    1  UNL1       -0.0002
     25 C          63.7903   83.1079   10.2416 C.ar    1  UNL1        0.0031
     26 C          63.0402   83.0702   11.5401 C.ar    1  UNL1        0.0388
     27 C          62.1210   84.1968   11.9082 C.ar    1  UNL1       -0.0011
     28 C          63.2094   81.9057   12.4703 C.ar    1  UNL1        0.2037
     29 N          62.5536   80.5638   12.3316 N.ar    1  UNL1       -0.1829
     30 C          63.0030   79.7075   13.4782 C.ar    1  UNL1        0.3164
     31 O          63.9366   80.5201   14.3256 O.2     1  UNL1       -0.3274
     32 N          64.0642   81.8787   13.7028 N.ar    1  UNL1       -0.0554
@<TRIPOS>BOND
     1     9    10    1
     2    10    11   ar
     3    11    12   ar
     4    12    13   ar
     5    13    14   ar
     6    14     1    1
     7     1     2    2
     8     1     3   am
     9     3     4    1
    10     4     5    1
    11     5     6    1
    12     6     7    1
    13     7     8    1
    14     8    21    1
    15    21    22    1
    16    22    23   ar
    17    23    24   ar
    18    24    25   ar
    19    25    26   ar
    20    26    28    1
    21    28    29   ar
    22    29    30   ar
    23    30    31   ar
    24    31    32   ar
    25    26    27   ar
    26    14    15   ar
    27    15    16    1
    28    16    17   ar
    29    17    18   ar
    30    18    19   ar
    31    19    20   ar
    32    15    10   ar
    33    20    16   ar
    34     8     3    1
    35    27    22   ar
    36    32    28   ar
@<TRIPOS>MOLECULE
*****
 32 36 0 0 0
SMALL
GASTEIGER

@<TRIPOS>ATOM
      1 C          62.8541   88.1793   11.0425 C.2     1  UNL1        0.2506
      2 O          63.1580   89.6326   10.8291 O.2     1  UNL1       -0.2699
      3 N          63.2541   87.5097   12.3237 N.am    1  UNL1       -0.2723
      4 C          62.9503   86.0564   12.5371 C.3     1  UNL1        0.1257
      5 C          63.3504   85.3869   13.8185 C.3     1  UNL1        0.1637
      6 O          64.0542   86.1706   14.8863 O.3     1  UNL1       -0.3502
      7 C          64.3580   87.6239   14.6729 C.3     1  UNL1        0.1622
      8 C          63.9580   88.2935   13.3916 C.3     1  UNL1        0.1096
      9 C          58.5271   87.0687    8.3884 C.3     1  UNL1        0.0327
     10 C          59.9869   86.8403    8.6476 C.ar    1  UNL1       -0.0023
     11 C          60.7427   85.8281    7.8388 C.ar    1  UNL1       -0.0027
     12 C          62.2024   85.5996    8.0979 C.ar    1  UNL1       -0.0001
     13 C          62.9061   86.3833    9.1658 C.ar    1  UNL1        0.0061
     14 C          62.1503   87.3955    9.9746 C.ar    1  UNL1        0.0726
     15 C          60.6906   87.6240    9.7155 C.ar    1  UNL1        0.1032
     16 N          59.9348   88.6362   10.5242 N.ar    1  UNL1       -0.1480
     17 N          59.1973   88.3703   11.8030 N.ar    1  UNL1       -0.1447
     18 C          58.5904   89.6619   12.2653 C.ar    1  UNL1        0.1446
     19 C          58.9528   90.7260   11.2722 C.ar    1  UNL1        0.1446
     20 N          59.7837   90.0921   10.1962 N.ar    1  UNL1       -0.1447
     21 C          64.2618   89.7468   13.1782 C.3     1  UNL1        0.0487
     22 C          64.6661   90.6068   14.3388 C.ar    1  UNL1       -0.0203
     23 C          63.7447   90.7652   15.5117 C.ar    1  UNL1       -0.0042
     24 C          64.1490   91.6252   16.6724 C.ar    1  UNL1       -0.0002
     25 C          65.4747   92.3268   16.6600 C.ar    1  UNL1        0.0031
     26 C          66.3961   92.1685   15.4869 C.ar    1  UNL1        0.0388
     27 C          65.9918   91.3085   14.3264 C.ar    1  UNL1       -0.0011
     28 C          67.7218   92.8701   15.4745 C.ar    1  UNL1        0.2037
     29 N          68.1189   94.0202   16.3517 N.ar    1  UNL1       -0.1829
     30 C          69.5257   94.4058   16.0021 C.ar    1  UNL1        0.3164
     31 O          69.9981   93.4940   14.9087 O.2     1  UNL1       -0.3274
     32 N          68.8833   92.5448   14.5826 N.ar    1  UNL1       -0.0554
@<TRIPOS>BOND
     1     9    10    1
     2    10    11   ar
     3    11    12   ar
     4    12    13   ar
     5    13    14   ar
     6    14     1    1
     7     1     2    2
     8     1     3   am
     9     3     4    1
    10     4     5    1
    11     5     6    1
    12     6     7    1
    13     7     8    1
    14     8    21    1
    15    21    22    1
    16    22    23   ar
    17    23    24   ar
    18    24    25   ar
    19    25    26   ar
    20    26    28    1
    21    28    29   ar
    22    29    30   ar
    23    30    31   ar
    24    31    32   ar
    25    26    27   ar
    26    14    15   ar
    27    15    16    1
    28    16    17   ar
    29    17    18   ar
    30    18    19   ar
    31    19    20   ar
    32    15    10   ar
    33    20    16   ar
    34     8     3    1
    35    27    22   ar
    36    32    28   ar
