@<TRIPOS>MOLECULE
*****
 32 34 0 0 0
SMALL
GASTEIGER

@<TRIPOS>ATOM
      1 C          64.7147   90.5137   14.5446 C.ar    1  UNL1        0.0291
      2 C          64.6219   89.0330   14.3232 C.ar    1  UNL1        0.0145
      3 C          63.9108   88.1684   15.3216 C.ar    1  UNL1        0.0505
      4 C          63.2925   88.7845   16.5415 C.ar    1  UNL1        0.0170
      5 C          63.3854   90.2651   16.7630 C.ar    1  UNL1        0.0306
      6 C          64.0964   91.1297   15.7646 C.ar    1  UNL1        0.1380
      7 F          64.1892   92.6104   15.9861 F       1  UNL1       -0.2044
      8 C          62.7921   91.2111   10.5822 C.3     1  UNL1        0.0150
      9 C          64.0206   91.5607   11.3686 C.3     1  UNL1        0.0893
     10 S          65.0726   92.4425   10.7637 S.3     1  UNL1       -0.0788
     11 C          66.3011   92.7921   11.5501 C.2     1  UNL1        0.1483
     12 N          67.3531   93.6739   10.9452 N.pl3   1  UNL1       -0.3380
     13 N          66.4777   92.2600   12.9414 N.2     1  UNL1       -0.2481
     14 C          65.4258   91.3783   13.5462 C.3     1  UNL1        0.1380
     15 C          66.4073   91.4276   14.6794 C.3     1  UNL1        0.0319
     16 C          64.1972   91.0286   12.7598 C.3     1  UNL1        0.1954
     17 F          63.1453   90.1468   13.3648 F       1  UNL1       -0.2340
     18 H          67.2372   94.0232   10.0320 H       1  UNL1        0.1442
     19 H          68.1594   93.9034   11.4613 H       1  UNL1        0.1442
     20 N          63.8181   86.6878   15.1001 N.am    1  UNL1       -0.2791
     21 C          63.4614   86.1531   13.7448 C.2     1  UNL1        0.2688
     22 O          63.1975   87.0991   12.6110 O.2     1  UNL1       -0.2681
     23 H          63.9913   86.0669   15.8443 H       1  UNL1        0.1552
     24 C          63.3686   84.6725   13.5232 C.ar    1  UNL1        0.1541
     25 C          63.5599   83.7286   14.6732 C.ar    1  UNL1        0.1258
     26 N          63.4671   82.2480   14.4517 N.ar    1  UNL1       -0.2070
     27 C          63.1831   81.7112   13.0802 C.ar    1  UNL1        0.2469
     28 C          62.9918   82.6550   11.9302 C.ar    1  UNL1        0.1566
     29 N          63.0846   84.1356   12.1517 N.ar    1  UNL1       -0.2328
     30 O          63.0903   80.2304   12.8586 O.3     1  UNL1       -0.4265
     31 C          61.9656   79.4496   13.4712 C.3     1  UNL1        0.4044
     32 F          60.7459   80.1618   13.9763 F       1  UNL1       -0.1809
@<TRIPOS>BOND
     1     9     8    1
     2     9    10    1
     3    10    11    1
     4    11    12    1
     5    11    13    2
     6    13    14    1
     7    14    15    1
     8    14     1    1
     9     1     2   ar
    10     2     3   ar
    11     3    20    1
    12    20    21   am
    13    21    22    2
    14    21    24    1
    15    24    25   ar
    16    25    26   ar
    17    26    27   ar
    18    27    30    1
    19    30    31    1
    20    31    32    1
    21    27    28   ar
    22    28    29   ar
    23     3     4   ar
    24     4     5   ar
    25     5     6   ar
    26     6     7    1
    27    14    16    1
    28    16    17    1
    29    16     9    1
    30     6     1   ar
    31    29    24   ar
    32    12    18    1
    33    12    19    1
    34    20    23    1
@<TRIPOS>MOLECULE
*****
 32 34 0 0 0
SMALL
GASTEIGER

@<TRIPOS>ATOM
      1 C          63.9640   86.4425   14.9293 C.ar    1  UNL1        0.0291
      2 C          64.5770   87.6720   14.3274 C.ar    1  UNL1        0.0145
      3 C          64.3715   89.0079   14.9779 C.ar    1  UNL1        0.0505
      4 C          63.5530   89.1143   16.2304 C.ar    1  UNL1        0.0170
      5 C          62.9400   87.8847   16.8324 C.ar    1  UNL1        0.0306
      6 C          63.1454   86.5488   16.1819 C.ar    1  UNL1        0.1380
      7 F          62.5324   85.3193   16.7838 F       1  UNL1       -0.2044
      8 C          61.9162   85.6255   11.0534 C.3     1  UNL1        0.0150
      9 C          62.8337   84.9870   12.0536 C.3     1  UNL1        0.0893
     10 S          63.3330   83.5905   11.8290 S.3     1  UNL1       -0.0788
     11 C          64.2505   82.9521   12.8293 C.2     1  UNL1        0.1483
     12 N          64.7498   81.5555   12.6046 N.pl3   1  UNL1       -0.3380
     13 N          64.6687   83.7101   14.0542 N.2     1  UNL1       -0.2481
     14 C          64.1694   85.1066   14.2789 C.3     1  UNL1        0.1380
     15 C          65.0155   84.9321   15.5051 C.3     1  UNL1        0.0319
     16 C          63.2519   85.7450   13.2786 C.3     1  UNL1        0.1954
     17 F          62.7526   87.1416   13.5033 F       1  UNL1       -0.2340
     18 H          64.4753   81.0580   11.8006 H       1  UNL1        0.1442
     19 H          65.3520   81.1364   13.2611 H       1  UNL1        0.1442
     20 N          64.9845   90.2375   14.3759 N.am    1  UNL1       -0.2791
     21 C          64.3899   90.8434   13.1393 C.2     1  UNL1        0.2688
     22 O          63.1823   90.2198   12.5047 O.2     1  UNL1       -0.2681
     23 H          65.7771   90.6467   14.7924 H       1  UNL1        0.1552
     24 C          65.0029   92.0730   12.5372 C.ar    1  UNL1        0.1541
     25 C          64.8973   92.3177   11.0611 C.ar    1  UNL1        0.1258
     26 N          65.5102   93.5472   10.4589 N.ar    1  UNL1       -0.2070
     27 C          66.2288   94.5320   11.3329 C.ar    1  UNL1        0.2469
     28 C          66.3343   94.2873   12.8091 C.ar    1  UNL1        0.1566
     29 N          65.7214   93.0578   13.4112 N.ar    1  UNL1       -0.2328
     30 O          66.8418   95.7616   10.7308 O.3     1  UNL1       -0.4265
     31 C          67.4712   95.6967    9.3708 C.3     1  UNL1        0.4044
     32 F          68.4200   94.5841    9.0358 F       1  UNL1       -0.1809
@<TRIPOS>BOND
     1     9     8    1
     2     9    10    1
     3    10    11    1
     4    11    12    1
     5    11    13    2
     6    13    14    1
     7    14    15    1
     8    14     1    1
     9     1     2   ar
    10     2     3   ar
    11     3    20    1
    12    20    21   am
    13    21    22    2
    14    21    24    1
    15    24    25   ar
    16    25    26   ar
    17    26    27   ar
    18    27    30    1
    19    30    31    1
    20    31    32    1
    21    27    28   ar
    22    28    29   ar
    23     3     4   ar
    24     4     5   ar
    25     5     6   ar
    26     6     7    1
    27    14    16    1
    28    16    17    1
    29    16     9    1
    30     6     1   ar
    31    29    24   ar
    32    12    18    1
    33    12    19    1
    34    20    23    1
@<TRIPOS>MOLECULE
*****
 32 34 0 0 0
SMALL
GASTEIGER

@<TRIPOS>ATOM
      1 C          62.1015   86.7094   10.3226 C.ar    1  UNL1        0.0291
      2 C          62.9691   87.7660   10.9397 C.ar    1  UNL1        0.0145
      3 C          62.4842   89.1833   11.0179 C.ar    1  UNL1        0.0505
      4 C          61.1316   89.5440   10.4790 C.ar    1  UNL1        0.0170
      5 C          60.2640   88.4874    9.8619 C.ar    1  UNL1        0.0306
      6 C          60.7489   87.0701    9.7837 C.ar    1  UNL1        0.1380
      7 F          59.8812   86.0136    9.1666 F       1  UNL1       -0.2044
      8 C          62.2683   84.3072   14.0757 C.3     1  UNL1        0.0150
      9 C          62.5489   84.2086   12.6055 C.3     1  UNL1        0.0893
     10 S          63.0728   82.9281   12.0261 S.3     1  UNL1       -0.0788
     11 C          63.3535   82.8295   10.5559 C.2     1  UNL1        0.1483
     12 N          63.8774   81.5489    9.9765 N.pl3   1  UNL1       -0.3380
     13 N          63.1103   84.0116    9.6650 N.2     1  UNL1       -0.2481
     14 C          62.5864   85.2921   10.2444 C.3     1  UNL1        0.1380
     15 C          62.6986   85.6858    8.8014 C.3     1  UNL1        0.0319
     16 C          62.3057   85.3906   11.7146 C.3     1  UNL1        0.1954
     17 F          61.7818   86.6713   12.2939 F       1  UNL1       -0.2340
     18 H          64.0370   80.7731   10.5613 H       1  UNL1        0.1442
     19 H          64.0616   81.4842    9.0116 H       1  UNL1        0.1442
     20 N          63.3518   90.2399   11.6350 N.am    1  UNL1       -0.2791
     21 C          63.9156   90.0384   13.0103 C.2     1  UNL1        0.2688
     22 O          63.6117   88.7803   13.7685 O.2     1  UNL1       -0.2681
     23 H          63.5513   91.0656   11.1373 H       1  UNL1        0.1552
     24 C          64.7833   91.0949   13.6275 C.ar    1  UNL1        0.1541
     25 C          64.8127   91.2651   15.1175 C.ar    1  UNL1        0.1258
     26 N          65.6803   92.3215   15.7348 N.ar    1  UNL1       -0.2070
     27 C          66.5185   93.2079   14.8620 C.ar    1  UNL1        0.2469
     28 C          66.4891   93.0378   13.3719 C.ar    1  UNL1        0.1566
     29 N          65.6215   91.9813   12.7547 N.ar    1  UNL1       -0.2328
     30 O          67.3862   94.2645   15.4792 O.3     1  UNL1       -0.4265
     31 C          68.7375   93.9031   16.0207 C.3     1  UNL1        0.4044
     32 F          69.0315   92.4872   16.4197 F       1  UNL1       -0.1809
@<TRIPOS>BOND
     1     9     8    1
     2     9    10    1
     3    10    11    1
     4    11    12    1
     5    11    13    2
     6    13    14    1
     7    14    15    1
     8    14     1    1
     9     1     2   ar
    10     2     3   ar
    11     3    20    1
    12    20    21   am
    13    21    22    2
    14    21    24    1
    15    24    25   ar
    16    25    26   ar
    17    26    27   ar
    18    27    30    1
    19    30    31    1
    20    31    32    1
    21    27    28   ar
    22    28    29   ar
    23     3     4   ar
    24     4     5   ar
    25     5     6   ar
    26     6     7    1
    27    14    16    1
    28    16    17    1
    29    16     9    1
    30     6     1   ar
    31    29    24   ar
    32    12    18    1
    33    12    19    1
    34    20    23    1
@<TRIPOS>MOLECULE
*****
 32 34 0 0 0
SMALL
GASTEIGER

@<TRIPOS>ATOM
      1 C          60.2978   94.1480    0.4617 C.ar    1  UNL1        0.0291
      2 C          59.6347   93.5456   -0.7413 C.ar    1  UNL1        0.0145
      3 C          58.6385   94.3451   -1.5278 C.ar    1  UNL1        0.0505
      4 C          58.3055   95.7471   -1.1112 C.ar    1  UNL1        0.0170
      5 C          58.9687   96.3495    0.0918 C.ar    1  UNL1        0.0306
      6 C          59.9648   95.5500    0.8783 C.ar    1  UNL1        0.1380
      7 F          60.6279   96.1525    2.0813 F       1  UNL1       -0.2044
      8 C          64.6289   94.6143   -0.4913 C.3     1  UNL1        0.0150
      9 C          63.7019   93.8721    0.4252 C.3     1  UNL1        0.0893
     10 S          64.2559   92.9113    1.4350 S.3     1  UNL1       -0.0788
     11 C          63.3290   92.1692    2.3515 C.2     1  UNL1        0.1483
     12 N          63.8831   91.2083    3.3614 N.pl3   1  UNL1       -0.3380
     13 N          61.8480   92.3878    2.2581 N.2     1  UNL1       -0.2481
     14 C          61.2939   93.3485    1.2482 C.3     1  UNL1        0.1380
     15 C          60.0210   92.8841    1.8914 C.3     1  UNL1        0.0319
     16 C          62.2209   94.0907    0.3317 C.3     1  UNL1        0.1954
     17 F          61.6668   95.0516   -0.6782 F       1  UNL1       -0.2340
     18 H          64.8551   91.0648    3.4227 H       1  UNL1        0.1442
     19 H          63.2747   90.7212    3.9629 H       1  UNL1        0.1442
     20 N          57.9754   93.7426   -2.7308 N.am    1  UNL1       -0.2791
     21 C          56.9594   92.6524   -2.5599 C.2     1  UNL1        0.2688
     22 O          56.6065   92.1647   -1.1860 O.2     1  UNL1       -0.2681
     23 H          58.2071   94.0627   -3.6325 H       1  UNL1        0.1552
     24 C          56.2963   92.0499   -3.7629 C.ar    1  UNL1        0.1541
     25 C          55.6331   90.7083   -3.6605 C.ar    1  UNL1        0.1258
     26 N          54.9699   90.1057   -4.8633 N.ar    1  UNL1       -0.2070
     27 C          54.9699   90.8446   -6.1687 C.ar    1  UNL1        0.2469
     28 C          55.6330   92.1862   -6.2712 C.ar    1  UNL1        0.1566
     29 N          56.2962   92.7888   -5.0683 N.ar    1  UNL1       -0.2328
     30 O          54.3067   90.2420   -7.3717 O.3     1  UNL1       -0.4265
     31 C          52.8900   89.7571   -7.2829 C.3     1  UNL1        0.4044
     32 F          52.3163   89.3560   -5.9562 F       1  UNL1       -0.1809
@<TRIPOS>BOND
     1     9     8    1
     2     9    10    1
     3    10    11    1
     4    11    12    1
     5    11    13    2
     6    13    14    1
     7    14    15    1
     8    14     1    1
     9     1     2   ar
    10     2     3   ar
    11     3    20    1
    12    20    21   am
    13    21    22    2
    14    21    24    1
    15    24    25   ar
    16    25    26   ar
    17    26    27   ar
    18    27    30    1
    19    30    31    1
    20    31    32    1
    21    27    28   ar
    22    28    29   ar
    23     3     4   ar
    24     4     5   ar
    25     5     6   ar
    26     6     7    1
    27    14    16    1
    28    16    17    1
    29    16     9    1
    30     6     1   ar
    31    29    24   ar
    32    12    18    1
    33    12    19    1
    34    20    23    1
@<TRIPOS>MOLECULE
*****
 32 34 0 0 0
SMALL
GASTEIGER

@<TRIPOS>ATOM
      1 C          62.9528   84.8613   11.6544 C.ar    1  UNL1        0.0291
      2 C          63.6077   86.0600   12.2742 C.ar    1  UNL1        0.0145
      3 C          63.7616   86.1443   13.7639 C.ar    1  UNL1        0.0505
      4 C          63.2605   85.0297   14.6339 C.ar    1  UNL1        0.0170
      5 C          62.6057   83.8310   14.0141 C.ar    1  UNL1        0.0306
      6 C          62.4518   83.7467   12.5244 C.ar    1  UNL1        0.1380
      7 F          61.7969   82.5480   11.9047 F       1  UNL1       -0.2044
      8 C          59.7923   87.3251    9.6988 C.3     1  UNL1        0.0150
      9 C          60.8747   86.3366    9.3806 C.3     1  UNL1        0.0893
     10 S          61.1153   85.9192    7.9601 S.3     1  UNL1       -0.0788
     11 C          62.1977   84.9307    7.6419 C.2     1  UNL1        0.1483
     12 N          62.4382   84.5133    6.2213 N.pl3   1  UNL1       -0.3380
     13 N          63.0395   84.3596    8.7442 N.2     1  UNL1       -0.2481
     14 C          62.7989   84.7770   10.1647 C.3     1  UNL1        0.1380
     15 C          63.9348   83.8178   10.3639 C.3     1  UNL1        0.0319
     16 C          61.7165   85.7655   10.4829 C.3     1  UNL1        0.1954
     17 F          61.4759   86.1829   11.9035 F       1  UNL1       -0.2340
     18 H          61.8857   84.8882    5.4978 H       1  UNL1        0.1442
     19 H          63.1487   83.8645    6.0124 H       1  UNL1        0.1442
     20 N          64.4164   87.3430   14.3836 N.am    1  UNL1       -0.2791
     21 C          64.0306   88.7224   13.9384 C.2     1  UNL1        0.2688
     22 O          62.9897   88.9031   12.8734 O.2     1  UNL1       -0.2681
     23 H          65.0996   87.2244   15.0826 H       1  UNL1        0.1552
     24 C          64.6854   89.9213   14.5581 C.ar    1  UNL1        0.1541
     25 C          63.9487   90.7325   15.5824 C.ar    1  UNL1        0.1258
     26 N          64.6035   91.9313   16.2021 N.ar    1  UNL1       -0.2070
     27 C          65.9949   92.3189   15.7976 C.ar    1  UNL1        0.2469
     28 C          66.7316   91.5077   14.7732 C.ar    1  UNL1        0.1566
     29 N          66.0768   90.3089   14.1535 N.ar    1  UNL1       -0.2328
     30 O          66.6498   93.5178   16.4173 O.3     1  UNL1       -0.4265
     31 C          68.0565   93.8806   16.0441 C.3     1  UNL1        0.4044
     32 F          69.1820   92.9396   16.3571 F       1  UNL1       -0.1809
@<TRIPOS>BOND
     1     9     8    1
     2     9    10    1
     3    10    11    1
     4    11    12    1
     5    11    13    2
     6    13    14    1
     7    14    15    1
     8    14     1    1
     9     1     2   ar
    10     2     3   ar
    11     3    20    1
    12    20    21   am
    13    21    22    2
    14    21    24    1
    15    24    25   ar
    16    25    26   ar
    17    26    27   ar
    18    27    30    1
    19    30    31    1
    20    31    32    1
    21    27    28   ar
    22    28    29   ar
    23     3     4   ar
    24     4     5   ar
    25     5     6   ar
    26     6     7    1
    27    14    16    1
    28    16    17    1
    29    16     9    1
    30     6     1   ar
    31    29    24   ar
    32    12    18    1
    33    12    19    1
    34    20    23    1
@<TRIPOS>MOLECULE
*****
 32 34 0 0 0
SMALL
GASTEIGER

@<TRIPOS>ATOM
      1 C          61.1198   88.0103   10.0327 C.ar    1  UNL1        0.0291
      2 C          62.1728   88.9431   10.5532 C.ar    1  UNL1        0.0145
      3 C          61.8254   89.9544   11.6051 C.ar    1  UNL1        0.0505
      4 C          60.4248   90.0329   12.1365 C.ar    1  UNL1        0.0170
      5 C          59.3718   89.1001   11.6160 C.ar    1  UNL1        0.0306
      6 C          59.7192   88.0888   10.5641 C.ar    1  UNL1        0.1380
      7 F          58.6661   87.1560   10.0436 F       1  UNL1       -0.2044
      8 C          63.4127   84.3825   11.2433 C.3     1  UNL1        0.0150
      9 C          62.7944   85.0335   10.0416 C.3     1  UNL1        0.0893
     10 S          62.8852   84.3703    8.6993 S.3     1  UNL1       -0.0788
     11 C          62.2670   85.0214    7.4977 C.2     1  UNL1        0.1483
     12 N          62.3578   84.3581    6.1554 N.pl3   1  UNL1       -0.3380
     13 N          61.5579   86.3357    7.6384 N.2     1  UNL1       -0.2481
     14 C          61.4672   86.9989    8.9807 C.3     1  UNL1        0.1380
     15 C          60.7283   88.0013    8.1445 C.3     1  UNL1        0.0319
     16 C          62.0854   86.3478   10.1824 C.3     1  UNL1        0.1954
     17 F          61.9946   87.0111   11.5247 F       1  UNL1       -0.2340
     18 H          62.8231   83.4955    6.0630 H       1  UNL1        0.1442
     19 H          61.9520   84.7854    5.3667 H       1  UNL1        0.1442
     20 N          62.8785   90.8871   12.1256 N.am    1  UNL1       -0.2791
     21 C          63.7139   90.4909   13.3067 C.2     1  UNL1        0.2688
     22 O          63.4963   89.1619   13.9673 O.2     1  UNL1       -0.2681
     23 H          63.0213   91.7594   11.6920 H       1  UNL1        0.1552
     24 C          64.7670   91.4236   13.8272 C.ar    1  UNL1        0.1541
     25 C          65.0867   91.4510   15.2926 C.ar    1  UNL1        0.1258
     26 N          66.1398   92.3836   15.8132 N.ar    1  UNL1       -0.2070
     27 C          66.8733   93.2890   14.8686 C.ar    1  UNL1        0.2469
     28 C          66.5536   93.2616   13.4032 C.ar    1  UNL1        0.1566
     29 N          65.5005   92.3290   12.8826 N.ar    1  UNL1       -0.2328
     30 O          67.9264   94.2217   15.3892 O.3     1  UNL1       -0.4265
     31 C          69.2079   93.6722   15.9422 C.3     1  UNL1        0.4044
     32 F          69.2320   92.3076   16.5646 F       1  UNL1       -0.1809
@<TRIPOS>BOND
     1     9     8    1
     2     9    10    1
     3    10    11    1
     4    11    12    1
     5    11    13    2
     6    13    14    1
     7    14    15    1
     8    14     1    1
     9     1     2   ar
    10     2     3   ar
    11     3    20    1
    12    20    21   am
    13    21    22    2
    14    21    24    1
    15    24    25   ar
    16    25    26   ar
    17    26    27   ar
    18    27    30    1
    19    30    31    1
    20    31    32    1
    21    27    28   ar
    22    28    29   ar
    23     3     4   ar
    24     4     5   ar
    25     5     6   ar
    26     6     7    1
    27    14    16    1
    28    16    17    1
    29    16     9    1
    30     6     1   ar
    31    29    24   ar
    32    12    18    1
    33    12    19    1
    34    20    23    1
@<TRIPOS>MOLECULE
*****
 32 34 0 0 0
SMALL
GASTEIGER

@<TRIPOS>ATOM
      1 C          60.8654   93.8414    0.2173 C.ar    1  UNL1        0.0291
      2 C          60.0827   93.1804   -0.8784 C.ar    1  UNL1        0.0145
      3 C          59.1703   93.9962   -1.7456 C.ar    1  UNL1        0.0505
      4 C          59.0406   95.4730   -1.5170 C.ar    1  UNL1        0.0170
      5 C          59.8232   96.1340   -0.4213 C.ar    1  UNL1        0.0306
      6 C          60.7356   95.3182    0.4459 C.ar    1  UNL1        0.1380
      7 F          61.5182   95.9792    1.5416 F       1  UNL1       -0.2044
      8 C          59.3090   92.3287    4.1127 C.3     1  UNL1        0.0150
      9 C          60.5421   92.3210    3.2586 C.3     1  UNL1        0.0893
     10 S          61.7727   91.6009    3.7246 S.3     1  UNL1       -0.0788
     11 C          63.0058   91.5932    2.8706 C.2     1  UNL1        0.1483
     12 N          64.2364   90.8731    3.3366 N.pl3   1  UNL1       -0.3380
     13 N          63.0083   92.3055    1.5505 N.2     1  UNL1       -0.2481
     14 C          61.7778   93.0256    1.0845 C.3     1  UNL1        0.1380
     15 C          62.6939   93.3012   -0.0707 C.3     1  UNL1        0.0319
     16 C          60.5447   93.0333    1.9386 C.3     1  UNL1        0.1954
     17 F          59.3140   93.7534    1.4725 F       1  UNL1       -0.2340
     18 H          64.2347   90.4056    4.2030 H       1  UNL1        0.1442
     19 H          65.0458   90.8681    2.7761 H       1  UNL1        0.1442
     20 N          58.3878   93.3352   -2.8413 N.am    1  UNL1       -0.2791
     21 C          57.1951   92.4896   -2.5060 C.2     1  UNL1        0.2688
     22 O          56.7850   92.3050   -1.0750 O.2     1  UNL1       -0.2681
     23 H          58.6569   93.4564   -3.7805 H       1  UNL1        0.1552
     24 C          56.4124   91.8285   -3.6017 C.ar    1  UNL1        0.1541
     25 C          55.6672   90.5558   -3.3281 C.ar    1  UNL1        0.1258
     26 N          54.8846   89.8947   -4.4237 N.ar    1  UNL1       -0.2070
     27 C          54.8470   90.5063   -5.7928 C.ar    1  UNL1        0.2469
     28 C          55.5922   91.7791   -6.0663 C.ar    1  UNL1        0.1566
     29 N          56.3749   92.4402   -4.9708 N.ar    1  UNL1       -0.2328
     30 O          54.0643   89.8452   -6.8885 O.3     1  UNL1       -0.4265
     31 C          52.5895   89.6239   -6.7281 C.3     1  UNL1        0.4044
     32 F          52.0422   89.1360   -5.4194 F       1  UNL1       -0.1809
@<TRIPOS>BOND
     1     9     8    1
     2     9    10    1
     3    10    11    1
     4    11    12    1
     5    11    13    2
     6    13    14    1
     7    14    15    1
     8    14     1    1
     9     1     2   ar
    10     2     3   ar
    11     3    20    1
    12    20    21   am
    13    21    22    2
    14    21    24    1
    15    24    25   ar
    16    25    26   ar
    17    26    27   ar
    18    27    30    1
    19    30    31    1
    20    31    32    1
    21    27    28   ar
    22    28    29   ar
    23     3     4   ar
    24     4     5   ar
    25     5     6   ar
    26     6     7    1
    27    14    16    1
    28    16    17    1
    29    16     9    1
    30     6     1   ar
    31    29    24   ar
    32    12    18    1
    33    12    19    1
    34    20    23    1
@<TRIPOS>MOLECULE
*****
 32 34 0 0 0
SMALL
GASTEIGER

@<TRIPOS>ATOM
      1 C          61.9656   87.1775   11.0671 C.ar    1  UNL1        0.0291
      2 C          62.9224   88.1947   11.6147 C.ar    1  UNL1        0.0145
      3 C          62.6008   89.6565   11.5159 C.ar    1  UNL1        0.0505
      4 C          61.3224   90.1011   10.8694 C.ar    1  UNL1        0.0170
      5 C          60.3656   89.0839   10.3218 C.ar    1  UNL1        0.0306
      6 C          60.6872   87.6222   10.4206 C.ar    1  UNL1        0.1380
      7 F          59.7304   86.6051    9.8730 F       1  UNL1       -0.2044
      8 C          63.2960   85.0378    7.3881 C.3     1  UNL1        0.0150
      9 C          63.0223   84.8088    8.8450 C.3     1  UNL1        0.0893
     10 S          63.2100   83.4438    9.4379 S.3     1  UNL1       -0.0788
     11 C          62.9363   83.2148   10.8948 C.2     1  UNL1        0.1483
     12 N          63.1241   81.8497   11.4877 N.pl3   1  UNL1       -0.3380
     13 N          62.4749   84.3508   11.7589 N.2     1  UNL1       -0.2481
     14 C          62.2872   85.7157   11.1660 C.3     1  UNL1        0.1380
     15 C          61.9018   85.9945   12.5886 C.3     1  UNL1        0.0319
     16 C          62.5609   85.9447    9.7090 C.3     1  UNL1        0.1954
     17 F          62.3731   87.3098    9.1162 F       1  UNL1       -0.2340
     18 H          63.4269   81.1041   10.9206 H       1  UNL1        0.1442
     19 H          62.9445   81.6994   12.4439 H       1  UNL1        0.1442
     20 N          63.5577   90.6736   12.0635 N.am    1  UNL1       -0.2791
     21 C          64.2341   90.4341   13.3807 C.2     1  UNL1        0.2688
     22 O          63.9537   89.1775   14.1503 O.2     1  UNL1       -0.2681
     23 H          63.7417   91.4984   11.5583 H       1  UNL1        0.1552
     24 C          65.1910   91.4512   13.9284 C.ar    1  UNL1        0.1541
     25 C          66.0869   92.2149   12.9988 C.ar    1  UNL1        0.1258
     26 N          67.0437   93.2320   13.5464 N.ar    1  UNL1       -0.2070
     27 C          67.1047   93.4854   15.0235 C.ar    1  UNL1        0.2469
     28 C          66.2088   92.7217   15.9531 C.ar    1  UNL1        0.1566
     29 N          65.2520   91.7046   15.4055 N.ar    1  UNL1       -0.2328
     30 O          68.0617   94.5026   15.5712 O.3     1  UNL1       -0.4265
     31 C          69.3538   94.0593   16.1907 C.3     1  UNL1        0.4044
     32 F          69.5373   92.6278   16.5997 F       1  UNL1       -0.1809
@<TRIPOS>BOND
     1     9     8    1
     2     9    10    1
     3    10    11    1
     4    11    12    1
     5    11    13    2
     6    13    14    1
     7    14    15    1
     8    14     1    1
     9     1     2   ar
    10     2     3   ar
    11     3    20    1
    12    20    21   am
    13    21    22    2
    14    21    24    1
    15    24    25   ar
    16    25    26   ar
    17    26    27   ar
    18    27    30    1
    19    30    31    1
    20    31    32    1
    21    27    28   ar
    22    28    29   ar
    23     3     4   ar
    24     4     5   ar
    25     5     6   ar
    26     6     7    1
    27    14    16    1
    28    16    17    1
    29    16     9    1
    30     6     1   ar
    31    29    24   ar
    32    12    18    1
    33    12    19    1
    34    20    23    1
@<TRIPOS>MOLECULE
*****
 32 34 0 0 0
SMALL
GASTEIGER

@<TRIPOS>ATOM
      1 C          63.1617   84.9062   13.6426 C.ar    1  UNL1        0.0291
      2 C          62.4356   85.6477   12.5595 C.ar    1  UNL1        0.0145
      3 C          62.6931   87.1105   12.3495 C.ar    1  UNL1        0.0505
      4 C          63.6767   87.8318   13.2226 C.ar    1  UNL1        0.0170
      5 C          64.4028   87.0903   14.3056 C.ar    1  UNL1        0.0306
      6 C          64.1453   85.6276   14.5156 C.ar    1  UNL1        0.1380
      7 F          64.8714   84.8862   15.5987 F       1  UNL1       -0.2044
      8 C          64.1618   82.0746   10.3463 C.3     1  UNL1        0.0150
      9 C          63.6024   82.1058   11.7377 C.3     1  UNL1        0.0893
     10 S          63.1817   80.8303   12.4056 S.3     1  UNL1       -0.0788
     11 C          62.6222   80.8615   13.7971 C.2     1  UNL1        0.1483
     12 N          62.2015   79.5859   14.4650 N.pl3   1  UNL1       -0.3380
     13 N          62.4835   82.1681   14.5206 N.2     1  UNL1       -0.2481
     14 C          62.9042   83.4435   13.8526 C.3     1  UNL1        0.1380
     15 C          62.4342   83.9827   15.1711 C.3     1  UNL1        0.0319
     16 C          63.4636   83.4124   12.4612 C.3     1  UNL1        0.1954
     17 F          63.8844   84.6879   11.7933 F       1  UNL1       -0.2340
     18 H          62.2926   78.7283   13.9901 H       1  UNL1        0.1442
     19 H          61.8343   79.6063   15.3782 H       1  UNL1        0.1442
     20 N          61.9670   87.8519   11.2665 N.am    1  UNL1       -0.2791
     21 C          61.2999   87.0947   10.1567 C.2     1  UNL1        0.2688
     22 O          61.3589   85.5960   10.1300 O.2     1  UNL1       -0.2681
     23 H          61.9282   88.8354   11.2840 H       1  UNL1        0.1552
     24 C          60.5737   87.8360    9.0736 C.ar    1  UNL1        0.1541
     25 C          59.7168   87.0867    8.0966 C.ar    1  UNL1        0.1258
     26 N          58.9906   87.8280    7.0135 N.ar    1  UNL1       -0.2070
     27 C          59.1213   89.3185    6.9073 C.ar    1  UNL1        0.2469
     28 C          59.9783   90.0677    7.8842 C.ar    1  UNL1        0.1566
     29 N          60.7044   89.3265    8.9673 N.ar    1  UNL1       -0.2328
     30 O          58.3951   90.0598    5.8241 O.3     1  UNL1       -0.4265
     31 C          59.0090   91.2838    5.2117 C.3     1  UNL1        0.4044
     32 F          58.3146   91.9864    4.0828 F       1  UNL1       -0.1809
@<TRIPOS>BOND
     1     9     8    1
     2     9    10    1
     3    10    11    1
     4    11    12    1
     5    11    13    2
     6    13    14    1
     7    14    15    1
     8    14     1    1
     9     1     2   ar
    10     2     3   ar
    11     3    20    1
    12    20    21   am
    13    21    22    2
    14    21    24    1
    15    24    25   ar
    16    25    26   ar
    17    26    27   ar
    18    27    30    1
    19    30    31    1
    20    31    32    1
    21    27    28   ar
    22    28    29   ar
    23     3     4   ar
    24     4     5   ar
    25     5     6   ar
    26     6     7    1
    27    14    16    1
    28    16    17    1
    29    16     9    1
    30     6     1   ar
    31    29    24   ar
    32    12    18    1
    33    12    19    1
    34    20    23    1
