@<TRIPOS>MOLECULE
*****
 48 52 0 0 0
SMALL
GASTEIGER

@<TRIPOS>ATOM
      1 C          65.2081   91.3893   13.4967 C.2     1  UNL1        0.2438
      2 O          65.7762   91.1703   14.8676 O.2     1  UNL1       -0.2731
      3 N          64.4899   90.2745   12.7956 N.am    1  UNL1       -0.2778
      4 C          63.8725   90.3444   11.4303 C.3     1  UNL1        0.0956
      5 C          63.2640   89.0072   11.1277 C.3     1  UNL1        0.0496
      6 C          63.5052   88.1109   12.3060 C.3     1  UNL1        0.1514
      7 C          63.1328   86.6826   12.5734 C.ar    1  UNL1       -0.0046
      8 C          62.3752   85.8994   11.5426 C.ar    1  UNL1       -0.0032
      9 C          62.0029   84.4713   11.8101 C.ar    1  UNL1       -0.0015
     10 C          62.3881   83.8262   13.1083 C.ar    1  UNL1        0.0232
     11 C          63.1458   84.6094   14.1391 C.ar    1  UNL1       -0.0057
     12 C          63.5181   86.0376   13.8717 C.ar    1  UNL1       -0.0247
     13 C          64.2758   86.8208   14.9025 C.3     1  UNL1        0.0278
     14 C          64.6481   88.2490   14.6351 C.3     1  UNL1        0.0265
     15 C          64.2628   88.8940   13.3368 C.3     1  UNL1        0.1001
     16 N          66.1565   93.8836   13.3422 N.am    1  UNL1       -0.2683
     17 C          66.0283   95.0080   12.3578 C.2     1  UNL1        0.2588
     18 O          66.6656   96.3608   12.4766 O.2     1  UNL1       -0.2719
     19 C          65.1508   94.5424   11.2339 C.3     1  UNL1        0.2386
     20 F          64.7566   95.3476   10.0314 F       1  UNL1       -0.2273
     21 C          64.7367   93.1301   11.5237 C.3     1  UNL1        0.0740
     22 C          65.3583   92.7228   12.8268 C.3     1  UNL1        0.1553
     23 C          66.9447   93.9143   14.6182 C.3     1  UNL1        0.1206
     24 C          68.0894   92.7126   13.2970 C.3     1  UNL1        0.0311
     25 C          68.2190   93.1312   14.7316 C.3     1  UNL1        0.1067
     26 C          68.3486   93.5498   16.1662 C.3     1  UNL1        0.0311
     27 O          69.4933   92.3481   14.8450 O.3     1  UNL1       -0.3851
     28 H          69.8013   92.1016   13.9588 H       1  UNL1        0.2103
     29 S          62.7510   87.4571   11.1863 S.O2    1  UNL1        0.0106
     30 O          63.3160   87.0852   10.7645 O.2     1  UNL1       -0.1684
     31 O          61.4672   88.0154   11.7250 O.2     1  UNL1       -0.1684
     32 C          61.9967   86.8033   10.0666 C.ar    1  UNL1        0.1061
     33 C          60.5167   87.0104    9.9379 C.ar    1  UNL1        0.0207
     34 C          59.7625   86.3567    8.8182 C.ar    1  UNL1        0.0310
     35 C          60.4883   85.4958    7.8272 C.ar    1  UNL1        0.1402
     36 F          59.7340   84.8420    6.7075 F       1  UNL1       -0.2042
     37 C          61.9684   85.2887    7.9559 C.ar    1  UNL1        0.0310
     38 C          62.7225   85.9425    9.0756 C.ar    1  UNL1        0.0207
     39 C          62.0158   82.3980   13.3758 C.3     1  UNL1        0.3242
     40 F          61.2306   82.8281   14.5793 F       1  UNL1       -0.2176
     41 C          61.6434   80.9698   13.6432 C.3     1  UNL1        0.4363
     42 F          61.2709   79.5415   13.9107 F       1  UNL1       -0.1666
     43 F          63.0887   80.5774   13.5604 F       1  UNL1       -0.1666
     44 F          60.1633   81.1851   13.7580 F       1  UNL1       -0.1666
     45 C          62.8009   81.9678   12.1722 C.3     1  UNL1        0.4363
     46 F          63.5861   81.5377   10.9687 F       1  UNL1       -0.1666
     47 F          61.6638   81.3306   11.4302 F       1  UNL1       -0.1666
     48 F          64.1962   82.4356   12.4630 F       1  UNL1       -0.1666
@<TRIPOS>BOND
     1    24    25    1
     2    25    26    1
     3    25    27    1
     4    25    23    1
     5    23    16    1
     6    16    17   am
     7    17    18    2
     8    17    19    1
     9    19    20    1
    10    19    21    1
    11    21    22    1
    12    22     1    1
    13     1     2    2
    14     1     3   am
    15     3     4    1
    16     4     5    1
    17     5     6    1
    18     6    29    1
    19    29    30    2
    20    29    31    2
    21    29    32    1
    22    32    33   ar
    23    33    34   ar
    24    34    35   ar
    25    35    36    1
    26    35    37   ar
    27    37    38   ar
    28     6     7    1
    29     7     8   ar
    30     8     9   ar
    31     9    10   ar
    32    10    39    1
    33    39    40    1
    34    39    41    1
    35    41    42    1
    36    41    43    1
    37    41    44    1
    38    39    45    1
    39    45    46    1
    40    45    47    1
    41    45    48    1
    42    10    11   ar
    43    11    12   ar
    44    12    13    1
    45    13    14    1
    46    15    14    1
    47    22    16    1
    48    15     3    1
    49    15     6    1
    50    38    32   ar
    51    12     7   ar
    52    27    28    1
@<TRIPOS>MOLECULE
*****
 48 52 0 0 0
SMALL
GASTEIGER

@<TRIPOS>ATOM
      1 C          65.9113   91.6082   13.8089 C.2     1  UNL1        0.2438
      2 O          66.6594   91.2567   15.0605 O.2     1  UNL1       -0.2731
      3 N          65.0185   90.5932   13.1586 N.am    1  UNL1       -0.2778
      4 C          64.2119   90.7990   11.9108 C.3     1  UNL1        0.0956
      5 C          63.4705   89.5272   11.6231 C.3     1  UNL1        0.0496
      6 C          63.8190   88.5353   12.6930 C.3     1  UNL1        0.1514
      7 C          63.3887   87.1173   12.9256 C.ar    1  UNL1       -0.0046
      8 C          62.4320   86.4585   11.9766 C.ar    1  UNL1       -0.0032
      9 C          62.0018   85.0405   12.2093 C.ar    1  UNL1       -0.0015
     10 C          62.5283   84.2813   13.3911 C.ar    1  UNL1        0.0232
     11 C          63.4850   84.9401   14.3401 C.ar    1  UNL1       -0.0057
     12 C          63.9152   86.3581   14.1074 C.ar    1  UNL1       -0.0247
     13 C          64.8720   87.0170   15.0564 C.3     1  UNL1        0.0278
     14 C          65.3022   88.4349   14.8237 C.3     1  UNL1        0.0265
     15 C          64.7757   89.1941   13.6420 C.3     1  UNL1        0.1001
     16 N          66.4290   93.2776   11.7865 N.am    1  UNL1       -0.2683
     17 C          66.4564   94.7683   11.6221 C.2     1  UNL1        0.2588
     18 O          66.7828   95.5102   10.3598 O.2     1  UNL1       -0.2719
     19 C          66.1001   95.3868   12.9413 C.3     1  UNL1        0.2386
     20 F          66.0077   96.8557   13.2301 F       1  UNL1       -0.2273
     21 C          65.8526   94.2783   13.9211 C.3     1  UNL1        0.0740
     22 C          66.0558   92.9747   13.2074 C.3     1  UNL1        0.1553
     23 C          66.7232   92.2671   10.7176 C.3     1  UNL1        0.1206
     24 C          68.6391   91.5184   11.2363 C.3     1  UNL1        0.0311
     25 C          68.0688   92.2462   10.0552 C.3     1  UNL1        0.1067
     26 C          67.4986   92.9740    8.8740 C.3     1  UNL1        0.0311
     27 O          69.4145   92.2254    9.3927 O.3     1  UNL1       -0.3851
     28 H          69.9951   91.6042    9.8595 H       1  UNL1        0.2103
     29 S          62.8617   88.0116   11.6638 S.O2    1  UNL1        0.0106
     30 O          63.3112   87.5395   11.2048 O.2     1  UNL1       -0.1684
     31 O          61.7513   88.7963   12.2971 O.2     1  UNL1       -0.1684
     32 C          61.9044   87.4877   10.6345 C.ar    1  UNL1        0.1061
     33 C          62.4079   86.6377    9.5059 C.ar    1  UNL1        0.0207
     34 C          61.4507   86.1138    8.4767 C.ar    1  UNL1        0.0310
     35 C          59.9900   86.4401    8.5761 C.ar    1  UNL1        0.1402
     36 F          59.0327   85.9163    7.5468 F       1  UNL1       -0.2042
     37 C          59.4865   87.2902    9.7048 C.ar    1  UNL1        0.0310
     38 C          60.4437   87.8140   10.7339 C.ar    1  UNL1        0.0207
     39 C          62.0980   82.8633   13.6237 C.3     1  UNL1        0.3242
     40 F          61.3483   83.2920   14.8502 F       1  UNL1       -0.2176
     41 C          61.6677   81.4453   13.8564 C.3     1  UNL1        0.4363
     42 F          61.2373   80.0273   14.0892 F       1  UNL1       -0.1666
     43 F          63.1015   81.0056   13.8280 F       1  UNL1       -0.1666
     44 F          60.1921   81.7089   13.9130 F       1  UNL1       -0.1666
     45 C          62.8476   82.4345   12.3973 C.3     1  UNL1        0.4363
     46 F          63.5973   82.0058   11.1709 F       1  UNL1       -0.1666
     47 F          61.6760   81.8585   11.6589 F       1  UNL1       -0.1666
     48 F          64.2638   82.8429   12.6763 F       1  UNL1       -0.1666
@<TRIPOS>BOND
     1    24    25    1
     2    25    26    1
     3    25    27    1
     4    25    23    1
     5    23    16    1
     6    16    17   am
     7    17    18    2
     8    17    19    1
     9    19    20    1
    10    19    21    1
    11    21    22    1
    12    22     1    1
    13     1     2    2
    14     1     3   am
    15     3     4    1
    16     4     5    1
    17     5     6    1
    18     6    29    1
    19    29    30    2
    20    29    31    2
    21    29    32    1
    22    32    33   ar
    23    33    34   ar
    24    34    35   ar
    25    35    36    1
    26    35    37   ar
    27    37    38   ar
    28     6     7    1
    29     7     8   ar
    30     8     9   ar
    31     9    10   ar
    32    10    39    1
    33    39    40    1
    34    39    41    1
    35    41    42    1
    36    41    43    1
    37    41    44    1
    38    39    45    1
    39    45    46    1
    40    45    47    1
    41    45    48    1
    42    10    11   ar
    43    11    12   ar
    44    12    13    1
    45    13    14    1
    46    15    14    1
    47    22    16    1
    48    15     3    1
    49    15     6    1
    50    38    32   ar
    51    12     7   ar
    52    27    28    1
@<TRIPOS>MOLECULE
*****
 48 52 0 0 0
SMALL
GASTEIGER

@<TRIPOS>ATOM
      1 C          65.2623   92.6434   11.9865 C.2     1  UNL1        0.2438
      2 O          65.9715   92.6744   13.3079 O.2     1  UNL1       -0.2731
      3 N          64.4940   91.4221   11.5761 N.am    1  UNL1       -0.2778
      4 C          63.7387   91.2457   10.2922 C.3     1  UNL1        0.0956
      5 C          63.1240   89.8774   10.3003 C.3     1  UNL1        0.0496
      6 C          63.4994   89.2083   11.5892 C.3     1  UNL1        0.1514
      7 C          63.1796   87.8529   12.1467 C.ar    1  UNL1       -0.0046
      8 C          62.3329   86.8983   11.3582 C.ar    1  UNL1       -0.0032
      9 C          62.0131   85.5430   11.9157 C.ar    1  UNL1       -0.0015
     10 C          62.5400   85.1423   13.2618 C.ar    1  UNL1        0.0232
     11 C          63.3867   86.0970   14.0503 C.ar    1  UNL1       -0.0057
     12 C          63.7065   87.4522   13.4928 C.ar    1  UNL1       -0.0247
     13 C          64.5532   88.4070   14.2813 C.3     1  UNL1        0.0278
     14 C          64.8729   89.7622   13.7238 C.3     1  UNL1        0.0265
     15 C          64.3460   90.1629   12.3777 C.3     1  UNL1        0.1001
     16 N          66.5489   94.3634   10.3956 N.am    1  UNL1       -0.2683
     17 C          66.1495   95.5600    9.5842 C.2     1  UNL1        0.2588
     18 O          67.0641   96.3996    8.7423 O.2     1  UNL1       -0.2719
     19 C          64.6750   95.7697    9.7624 C.3     1  UNL1        0.2386
     20 F          63.8561   96.8558    9.1301 F       1  UNL1       -0.2273
     21 C          64.1631   94.7027   10.6840 C.3     1  UNL1        0.0740
     22 C          65.3213   93.8334   11.0754 C.3     1  UNL1        0.1553
     23 C          67.9331   93.7961   10.5076 C.3     1  UNL1        0.1206
     24 C          68.3101   93.6819    8.4232 C.3     1  UNL1        0.0311
     25 C          68.3789   92.7152    9.5681 C.3     1  UNL1        0.1067
     26 C          68.4478   91.7485   10.7130 C.3     1  UNL1        0.0311
     27 O          68.8248   91.6342    8.6286 O.3     1  UNL1       -0.3851
     28 H          69.0818   92.0287    7.7805 H       1  UNL1        0.2103
     29 S          62.6448   88.3649   10.6901 S.O2    1  UNL1        0.0106
     30 O          63.1657   88.0275   10.1897 O.2     1  UNL1       -0.1684
     31 O          61.4217   88.8086   11.4362 O.2     1  UNL1       -0.1684
     32 C          61.7903   87.5214    9.7909 C.ar    1  UNL1        0.1061
     33 C          60.2991   87.6821    9.8062 C.ar    1  UNL1        0.0207
     34 C          59.4446   86.8387    8.9071 C.ar    1  UNL1        0.0310
     35 C          60.0813   85.8345    7.9927 C.ar    1  UNL1        0.1402
     36 F          59.2268   84.9910    7.0935 F       1  UNL1       -0.2042
     37 C          61.5726   85.6738    7.9774 C.ar    1  UNL1        0.0310
     38 C          62.4271   86.5172    8.8765 C.ar    1  UNL1        0.0207
     39 C          62.2202   83.7870   13.8193 C.3     1  UNL1        0.3242
     40 F          61.2720   84.4134   14.7983 F       1  UNL1       -0.2176
     41 C          61.9004   82.4317   14.3768 C.3     1  UNL1        0.4363
     42 F          61.5805   81.0763   14.9344 F       1  UNL1       -0.1666
     43 F          62.2827   82.9054   15.7477 F       1  UNL1       -0.1666
     44 F          61.4819   81.7962   13.0841 F       1  UNL1       -0.1666
     45 C          63.1684   83.1605   12.8404 C.3     1  UNL1        0.4363
     46 F          64.1167   82.5340   11.8614 F       1  UNL1       -0.1666
     47 F          62.2607   83.2127   11.6475 F       1  UNL1       -0.1666
     48 F          64.3984   82.8831   13.6531 F       1  UNL1       -0.1666
@<TRIPOS>BOND
     1    24    25    1
     2    25    26    1
     3    25    27    1
     4    25    23    1
     5    23    16    1
     6    16    17   am
     7    17    18    2
     8    17    19    1
     9    19    20    1
    10    19    21    1
    11    21    22    1
    12    22     1    1
    13     1     2    2
    14     1     3   am
    15     3     4    1
    16     4     5    1
    17     5     6    1
    18     6    29    1
    19    29    30    2
    20    29    31    2
    21    29    32    1
    22    32    33   ar
    23    33    34   ar
    24    34    35   ar
    25    35    36    1
    26    35    37   ar
    27    37    38   ar
    28     6     7    1
    29     7     8   ar
    30     8     9   ar
    31     9    10   ar
    32    10    39    1
    33    39    40    1
    34    39    41    1
    35    41    42    1
    36    41    43    1
    37    41    44    1
    38    39    45    1
    39    45    46    1
    40    45    47    1
    41    45    48    1
    42    10    11   ar
    43    11    12   ar
    44    12    13    1
    45    13    14    1
    46    15    14    1
    47    22    16    1
    48    15     3    1
    49    15     6    1
    50    38    32   ar
    51    12     7   ar
    52    27    28    1
@<TRIPOS>MOLECULE
*****
 48 52 0 0 0
SMALL
GASTEIGER

@<TRIPOS>ATOM
      1 C          59.4440   88.7452    6.6333 C.2     1  UNL1        0.2438
      2 O          59.1445   87.3934    6.0562 O.2     1  UNL1       -0.2731
      3 N          60.2209   88.8597    7.9115 N.am    1  UNL1       -0.2778
      4 C          60.5944   90.1363    8.6048 C.3     1  UNL1        0.0956
      5 C          61.3649   89.7832    9.8425 C.3     1  UNL1        0.0496
      6 C          61.4675   88.2885    9.9140 C.3     1  UNL1        0.1514
      7 C          62.1134   87.3733   10.9117 C.ar    1  UNL1       -0.0046
      8 C          62.8205   87.9441   12.1051 C.ar    1  UNL1       -0.0032
      9 C          63.4664   87.0290   13.1027 C.ar    1  UNL1       -0.0015
     10 C          63.4053   85.5431   12.9069 C.ar    1  UNL1        0.0232
     11 C          62.6982   84.9723   11.7135 C.ar    1  UNL1       -0.0057
     12 C          62.0523   85.8874   10.7159 C.ar    1  UNL1       -0.0247
     13 C          61.3452   85.3166    9.5224 C.3     1  UNL1        0.0278
     14 C          60.6993   86.2318    8.5248 C.3     1  UNL1        0.0265
     15 C          60.7605   87.7177    8.7206 C.3     1  UNL1        0.1001
     16 N          59.8204   90.9404    5.1555 N.am    1  UNL1       -0.2683
     17 C          58.9334   92.0291    4.6282 C.2     1  UNL1        0.2588
     18 O          59.3715   93.1977    3.7960 O.2     1  UNL1       -0.2719
     19 C          57.5315   91.7439    5.0792 C.3     1  UNL1        0.2386
     20 F          56.3216   92.5773    4.7772 F       1  UNL1       -0.2273
     21 C          57.5522   90.4791    5.8852 C.3     1  UNL1        0.0740
     22 C          58.9668   89.9824    5.9324 C.3     1  UNL1        0.1553
     23 C          61.3012   90.8293    4.9432 C.3     1  UNL1        0.1206
     24 C          61.1943   92.5846    3.7569 C.3     1  UNL1        0.0311
     25 C          61.9078   91.2700    3.6440 C.3     1  UNL1        0.1067
     26 C          62.6213   89.9554    3.5311 C.3     1  UNL1        0.0311
     27 O          62.5144   91.7108    2.3449 O.3     1  UNL1       -0.3851
     28 H          62.3873   92.6663    2.2364 H       1  UNL1        0.2103
     29 S          62.1354   89.0011   11.0524 S.O2    1  UNL1        0.0106
     30 O          62.8781   89.1272   10.7919 O.2     1  UNL1       -0.1684
     31 O          60.8616   88.9342   11.8416 O.2     1  UNL1       -0.1684
     32 C          62.8033   89.7137   12.1909 C.ar    1  UNL1        0.1061
     33 C          64.0030   90.5768   11.9349 C.ar    1  UNL1        0.0207
     34 C          64.6710   91.2894   13.0733 C.ar    1  UNL1        0.0310
     35 C          64.1392   91.1389   14.4678 C.ar    1  UNL1        0.1402
     36 F          64.8072   91.8515   15.6063 F       1  UNL1       -0.2042
     37 C          62.9394   90.2757   14.7238 C.ar    1  UNL1        0.0310
     38 C          62.2716   89.5631   13.5854 C.ar    1  UNL1        0.0207
     39 C          64.0512   84.6280   13.9046 C.3     1  UNL1        0.3242
     40 F          64.9683   84.1106   12.8363 F       1  UNL1       -0.2176
     41 C          64.6972   83.7129   14.9023 C.3     1  UNL1        0.4363
     42 F          65.3431   82.7977   15.9000 F       1  UNL1       -0.1666
     43 F          66.0375   84.3001   14.5730 F       1  UNL1       -0.1666
     44 F          63.4455   83.0184   15.3507 F       1  UNL1       -0.1666
     45 C          63.1342   85.1453   14.9730 C.3     1  UNL1        0.4363
     46 F          62.2170   85.6626   16.0413 F       1  UNL1       -0.1666
     47 F          64.1786   85.8543   15.7830 F       1  UNL1       -0.1666
     48 F          61.7818   84.6389   14.5669 F       1  UNL1       -0.1666
@<TRIPOS>BOND
     1    24    25    1
     2    25    26    1
     3    25    27    1
     4    25    23    1
     5    23    16    1
     6    16    17   am
     7    17    18    2
     8    17    19    1
     9    19    20    1
    10    19    21    1
    11    21    22    1
    12    22     1    1
    13     1     2    2
    14     1     3   am
    15     3     4    1
    16     4     5    1
    17     5     6    1
    18     6    29    1
    19    29    30    2
    20    29    31    2
    21    29    32    1
    22    32    33   ar
    23    33    34   ar
    24    34    35   ar
    25    35    36    1
    26    35    37   ar
    27    37    38   ar
    28     6     7    1
    29     7     8   ar
    30     8     9   ar
    31     9    10   ar
    32    10    39    1
    33    39    40    1
    34    39    41    1
    35    41    42    1
    36    41    43    1
    37    41    44    1
    38    39    45    1
    39    45    46    1
    40    45    47    1
    41    45    48    1
    42    10    11   ar
    43    11    12   ar
    44    12    13    1
    45    13    14    1
    46    15    14    1
    47    22    16    1
    48    15     3    1
    49    15     6    1
    50    38    32   ar
    51    12     7   ar
    52    27    28    1
