@<TRIPOS>MOLECULE
*****
 36 40 0 0 0
SMALL
GASTEIGER

@<TRIPOS>ATOM
      1 C          59.7540   90.9667    5.2470 C.ar    1  UNL1       -0.0025
      2 C          61.1711   90.5809    4.9421 C.ar    1  UNL1       -0.0014
      3 C          61.8977   91.2335    3.8036 C.ar    1  UNL1        0.0142
      4 C          61.2072   92.2719    2.9699 C.ar    1  UNL1        0.0478
      5 C          59.7902   92.6577    3.2748 C.ar    1  UNL1        0.0142
      6 C          59.0635   92.0051    4.4133 C.ar    1  UNL1       -0.0014
      7 N          61.9338   92.9245    1.8314 N.pl3   1  UNL1       -0.3075
      8 C          63.4289   93.0419    1.8648 C.3     1  UNL1        0.0911
      9 C          64.1555   93.6945    0.7263 C.3     1  UNL1        0.0258
     10 C          63.3871   94.2296   -0.4455 C.3     1  UNL1        0.0257
     11 C          61.8920   94.1122   -0.4789 C.3     1  UNL1        0.0258
     12 C          61.1654   93.4596    0.6596 C.3     1  UNL1        0.0911
     13 C          64.1137   94.8822   -1.5840 C.ar    1  UNL1       -0.0222
     14 C          65.0058   96.0604   -1.3275 C.ar    1  UNL1       -0.0020
     15 C          65.7324   96.7130   -2.4660 C.ar    1  UNL1        0.0293
     16 C          65.5669   96.1873   -3.8611 C.ar    1  UNL1        0.1401
     17 F          66.2935   96.8399   -4.9996 F       1  UNL1       -0.2042
     18 C          64.6748   95.0091   -4.1176 C.ar    1  UNL1        0.0293
     19 C          63.9482   94.3565   -2.9791 C.ar    1  UNL1       -0.0020
     20 C          59.0274   90.3141    6.3855 C.3     1  UNL1        0.1166
     21 C          59.4492   88.3725    8.0594 C.2     1  UNL1        0.2635
     22 O          58.3276   87.5936    7.4385 O.2     1  UNL1       -0.2685
     23 N          59.7991   89.7326    7.5328 N.am    1  UNL1       -0.2957
     24 H          60.5352   90.2438    7.9403 H       1  UNL1        0.1501
     25 C          60.1414   88.2344   10.6375 C.ar    1  UNL1        0.0811
     26 N          61.0789   87.3814   11.4398 N.ar    1  UNL1       -0.2306
     27 C          61.7378   86.4110   10.5048 C.ar    1  UNL1        0.1483
     28 C          62.7521   85.3295   10.7319 C.ar    1  UNL1        0.0488
     29 C          63.2361   84.5012    9.5789 C.ar    1  UNL1        0.0622
     30 CL         64.2505   83.4197    9.8059 Cl      1  UNL1       -0.0821
     31 C          62.7058   84.7543    8.1987 C.ar    1  UNL1        0.0305
     32 C          61.6915   85.8358    7.9717 C.ar    1  UNL1        0.0824
     33 N          61.2075   86.6641    9.1247 N.ar    1  UNL1       -0.2853
     34 C          60.2209   87.7910    9.2068 C.ar    1  UNL1        0.1326
     35 C          59.8040   90.7396   11.2373 C.3     1  UNL1        0.0067
     36 C          59.2764   89.3370   11.1722 C.3     1  UNL1        0.0475
@<TRIPOS>BOND
     1    35    36    1
     2    36    25    1
     3    25    26   ar
     4    26    27   ar
     5    27    28   ar
     6    28    29   ar
     7    29    30    1
     8    29    31   ar
     9    31    32   ar
    10    32    33   ar
    11    33    34   ar
    12    34    21    1
    13    21    22    2
    14    21    23   am
    15    23    20    1
    16    20     1    1
    17     1     2   ar
    18     2     3   ar
    19     3     4   ar
    20     4     7    1
    21     7     8    1
    22     8     9    1
    23     9    10    1
    24    10    13    1
    25    13    14   ar
    26    14    15   ar
    27    15    16   ar
    28    16    17    1
    29    16    18   ar
    30    18    19   ar
    31    10    11    1
    32    11    12    1
    33     4     5   ar
    34     5     6   ar
    35    34    25   ar
    36     6     1   ar
    37    33    27   ar
    38    12     7    1
    39    19    13   ar
    40    23    24    1
@<TRIPOS>MOLECULE
*****
 36 40 0 0 0
SMALL
GASTEIGER

@<TRIPOS>ATOM
      1 C          60.1212   91.4425    4.5697 C.ar    1  UNL1       -0.0025
      2 C          61.5561   91.1150    4.2804 C.ar    1  UNL1       -0.0014
      3 C          62.2365   91.7157    3.0861 C.ar    1  UNL1        0.0142
      4 C          61.4819   92.6440    2.1811 C.ar    1  UNL1        0.0478
      5 C          60.0470   92.9715    2.4704 C.ar    1  UNL1        0.0142
      6 C          59.3666   92.3708    3.6647 C.ar    1  UNL1       -0.0014
      7 N          62.1623   93.2447    0.9869 N.pl3   1  UNL1       -0.3075
      8 C          61.6880   92.9068   -0.3954 C.3     1  UNL1        0.0911
      9 C          62.3684   93.5075   -1.5896 C.3     1  UNL1        0.0258
     10 C          63.5231   94.4462   -1.4015 C.3     1  UNL1        0.0257
     11 C          63.9975   94.7842   -0.0192 C.3     1  UNL1        0.0258
     12 C          63.3171   94.1834    1.1750 C.3     1  UNL1        0.0911
     13 C          64.2035   95.0469   -2.5957 C.ar    1  UNL1       -0.0222
     14 C          65.1487   96.1983   -2.4201 C.ar    1  UNL1       -0.0020
     15 C          65.8291   96.7990   -3.6143 C.ar    1  UNL1        0.0293
     16 C          65.5643   96.2483   -4.9843 C.ar    1  UNL1        0.1401
     17 F          66.2447   96.8491   -6.1785 F       1  UNL1       -0.2042
     18 C          64.6191   95.0970   -5.1599 C.ar    1  UNL1        0.0293
     19 C          63.9387   94.4963   -3.9656 C.ar    1  UNL1       -0.0020
     20 C          59.4408   90.8418    5.7639 C.3     1  UNL1        0.1166
     21 C          59.6633   88.9451    7.5254 C.2     1  UNL1        0.2635
     22 O          58.2716   88.4853    7.2060 O.2     1  UNL1       -0.2685
     23 N          60.2478   90.1233    6.8043 N.am    1  UNL1       -0.2957
     24 H          61.1612   90.4250    7.0139 H       1  UNL1        0.1501
     25 C          60.7010   86.7460    8.6355 C.ar    1  UNL1        0.0811
     26 N          61.5616   86.4669    9.8319 N.ar    1  UNL1       -0.2306
     27 C          61.8627   87.7749   10.5017 C.ar    1  UNL1        0.1483
     28 C          62.6639   88.1161   11.7229 C.ar    1  UNL1        0.0488
     29 C          62.7907   89.5449   12.1617 C.ar    1  UNL1        0.0622
     30 CL         63.5919   89.8862   13.3830 Cl      1  UNL1       -0.0821
     31 C          62.1162   90.6324   11.3791 C.ar    1  UNL1        0.0305
     32 C          61.3150   90.2912   10.1578 C.ar    1  UNL1        0.0824
     33 N          61.1883   88.8624    9.7191 N.ar    1  UNL1       -0.2853
     34 C          60.4703   88.2265    8.5658 C.ar    1  UNL1        0.1326
     35 C          61.0830   85.0713    6.6863 C.3     1  UNL1        0.0067
     36 C          60.1652   85.7241    7.6771 C.3     1  UNL1        0.0475
@<TRIPOS>BOND
     1    35    36    1
     2    36    25    1
     3    25    26   ar
     4    26    27   ar
     5    27    28   ar
     6    28    29   ar
     7    29    30    1
     8    29    31   ar
     9    31    32   ar
    10    32    33   ar
    11    33    34   ar
    12    34    21    1
    13    21    22    2
    14    21    23   am
    15    23    20    1
    16    20     1    1
    17     1     2   ar
    18     2     3   ar
    19     3     4   ar
    20     4     7    1
    21     7     8    1
    22     8     9    1
    23     9    10    1
    24    10    13    1
    25    13    14   ar
    26    14    15   ar
    27    15    16   ar
    28    16    17    1
    29    16    18   ar
    30    18    19   ar
    31    10    11    1
    32    11    12    1
    33     4     5   ar
    34     5     6   ar
    35    34    25   ar
    36     6     1   ar
    37    33    27   ar
    38    12     7    1
    39    19    13   ar
    40    23    24    1
@<TRIPOS>MOLECULE
*****
 36 40 0 0 0
SMALL
GASTEIGER

@<TRIPOS>ATOM
      1 C          59.8372   87.7255    9.0053 C.ar    1  UNL1       -0.0025
      2 C          59.3957   87.2658    7.6475 C.ar    1  UNL1       -0.0014
      3 C          59.3827   88.2284    6.4972 C.ar    1  UNL1        0.0142
      4 C          59.8113   89.6508    6.7047 C.ar    1  UNL1        0.0478
      5 C          60.2528   90.1105    8.0625 C.ar    1  UNL1        0.0142
      6 C          60.2658   89.1479    9.2128 C.ar    1  UNL1       -0.0014
      7 N          59.7983   90.6134    5.5544 N.pl3   1  UNL1       -0.3075
      8 C          58.5079   91.2391    5.1146 C.3     1  UNL1        0.0911
      9 C          58.4949   92.2017    3.9643 C.3     1  UNL1        0.0258
     10 C          59.7723   92.5387    3.2539 C.3     1  UNL1        0.0257
     11 C          61.0626   91.9131    3.6937 C.3     1  UNL1        0.0258
     12 C          61.0756   90.9504    4.8440 C.3     1  UNL1        0.0911
     13 C          59.7593   93.5013    2.1036 C.ar    1  UNL1       -0.0222
     14 C          60.4215   94.8404    2.2386 C.ar    1  UNL1       -0.0020
     15 C          60.4085   95.8030    1.0884 C.ar    1  UNL1        0.0293
     16 C          59.7332   95.4266   -0.1971 C.ar    1  UNL1        0.1401
     17 F          59.7202   96.3892   -1.3474 F       1  UNL1       -0.2042
     18 C          59.0710   94.0875   -0.3321 C.ar    1  UNL1        0.0293
     19 C          59.0840   93.1249    0.8181 C.ar    1  UNL1       -0.0020
     20 C          59.8502   86.7628   10.1556 C.3     1  UNL1        0.1166
     21 C          62.1506   86.5982   11.3518 C.2     1  UNL1        0.2635
     22 O          62.7209   85.8916   10.1577 O.2     1  UNL1       -0.2685
     23 N          60.7154   87.0338   11.3506 N.am    1  UNL1       -0.2957
     24 H          60.3411   87.4976   12.1342 H       1  UNL1        0.1501
     25 C          63.5562   85.8407   13.4955 C.ar    1  UNL1        0.0811
     26 N          64.3668   86.5522   14.5379 N.ar    1  UNL1       -0.2306
     27 C          64.3274   88.0204   14.2335 C.ar    1  UNL1        0.1483
     28 C          64.9439   89.2043   14.9179 C.ar    1  UNL1        0.0488
     29 C          64.7255   90.5840   14.3716 C.ar    1  UNL1        0.0622
     30 CL         65.3420   91.7680   15.0560 Cl      1  UNL1       -0.0821
     31 C          63.8905   90.7800   13.1410 C.ar    1  UNL1        0.0305
     32 C          63.2739   89.5962   12.4567 C.ar    1  UNL1        0.0824
     33 N          63.4924   88.2164   13.0029 N.ar    1  UNL1       -0.2853
     34 C          63.0158   86.8692   12.5468 C.ar    1  UNL1        0.1326
     35 C          64.1800   83.5164   12.5166 C.3     1  UNL1        0.0067
     36 C          63.3263   84.3605   13.4157 C.3     1  UNL1        0.0475
@<TRIPOS>BOND
     1    35    36    1
     2    36    25    1
     3    25    26   ar
     4    26    27   ar
     5    27    28   ar
     6    28    29   ar
     7    29    30    1
     8    29    31   ar
     9    31    32   ar
    10    32    33   ar
    11    33    34   ar
    12    34    21    1
    13    21    22    2
    14    21    23   am
    15    23    20    1
    16    20     1    1
    17     1     2   ar
    18     2     3   ar
    19     3     4   ar
    20     4     7    1
    21     7     8    1
    22     8     9    1
    23     9    10    1
    24    10    13    1
    25    13    14   ar
    26    14    15   ar
    27    15    16   ar
    28    16    17    1
    29    16    18   ar
    30    18    19   ar
    31    10    11    1
    32    11    12    1
    33     4     5   ar
    34     5     6   ar
    35    34    25   ar
    36     6     1   ar
    37    33    27   ar
    38    12     7    1
    39    19    13   ar
    40    23    24    1
@<TRIPOS>MOLECULE
*****
 36 40 0 0 0
SMALL
GASTEIGER

@<TRIPOS>ATOM
      1 C          58.7689   91.0804    5.1884 C.ar    1  UNL1       -0.0025
      2 C          60.2564   91.0188    5.3713 C.ar    1  UNL1       -0.0014
      3 C          60.8490   90.0921    6.3911 C.ar    1  UNL1        0.0142
      4 C          59.9540   89.2269    7.2280 C.ar    1  UNL1        0.0478
      5 C          58.4665   89.2884    7.0451 C.ar    1  UNL1        0.0142
      6 C          57.8739   90.2152    6.0253 C.ar    1  UNL1       -0.0014
      7 N          60.5466   88.3001    8.2478 N.pl3   1  UNL1       -0.3075
      8 C          61.2504   88.8582    9.4491 C.3     1  UNL1        0.0911
      9 C          61.8430   87.9314   10.4689 C.3     1  UNL1        0.0258
     10 C          61.7318   86.4466   10.2873 C.3     1  UNL1        0.0257
     11 C          61.0281   85.8885    9.0860 C.3     1  UNL1        0.0258
     12 C          60.4355   86.8153    8.0662 C.3     1  UNL1        0.0911
     13 C          62.3244   85.5199   11.3071 C.ar    1  UNL1       -0.0222
     14 C          62.3046   84.0381   11.0752 C.ar    1  UNL1       -0.0020
     15 C          62.8972   83.1113   12.0950 C.ar    1  UNL1        0.0293
     16 C          63.5097   83.6664   13.3467 C.ar    1  UNL1        0.1401
     17 F          64.1023   82.7396   14.3665 F       1  UNL1       -0.2042
     18 C          63.5294   85.1482   13.5786 C.ar    1  UNL1        0.0293
     19 C          62.9368   86.0749   12.5589 C.ar    1  UNL1       -0.0020
     20 C          58.1763   92.0072    4.1686 C.3     1  UNL1        0.1166
     21 C          59.6931   93.2075    2.4341 C.2     1  UNL1        0.2635
     22 O          60.0294   94.2554    3.4534 O.2     1  UNL1       -0.2685
     23 N          58.7665   92.0834    2.7917 N.am    1  UNL1       -0.2957
     24 H          58.5458   91.3957    2.1228 H       1  UNL1        0.1501
     25 C          61.7455   93.2711    0.7228 C.ar    1  UNL1        0.0811
     26 N          61.8808   93.3656   -0.7681 N.ar    1  UNL1       -0.2306
     27 C          60.5023   93.4366   -1.3551 C.ar    1  UNL1        0.1483
     28 C          60.0185   93.5409   -2.7711 C.ar    1  UNL1        0.0488
     29 C          58.5474   93.5945   -3.0589 C.ar    1  UNL1        0.0622
     30 CL         58.0636   93.6987   -4.4750 Cl      1  UNL1       -0.0821
     31 C          57.5601   93.5439   -1.9308 C.ar    1  UNL1        0.0305
     32 C          58.0439   93.4397   -0.5149 C.ar    1  UNL1        0.0824
     33 N          59.5150   93.3861   -0.2270 N.ar    1  UNL1       -0.2853
     34 C          60.2833   93.2837    1.0572 C.ar    1  UNL1        0.1326
     35 C          63.0434   91.9455    2.5417 C.3     1  UNL1        0.0067
     36 C          62.8742   93.1800    1.7066 C.3     1  UNL1        0.0475
@<TRIPOS>BOND
     1    35    36    1
     2    36    25    1
     3    25    26   ar
     4    26    27   ar
     5    27    28   ar
     6    28    29   ar
     7    29    30    1
     8    29    31   ar
     9    31    32   ar
    10    32    33   ar
    11    33    34   ar
    12    34    21    1
    13    21    22    2
    14    21    23   am
    15    23    20    1
    16    20     1    1
    17     1     2   ar
    18     2     3   ar
    19     3     4   ar
    20     4     7    1
    21     7     8    1
    22     8     9    1
    23     9    10    1
    24    10    13    1
    25    13    14   ar
    26    14    15   ar
    27    15    16   ar
    28    16    17    1
    29    16    18   ar
    30    18    19   ar
    31    10    11    1
    32    11    12    1
    33     4     5   ar
    34     5     6   ar
    35    34    25   ar
    36     6     1   ar
    37    33    27   ar
    38    12     7    1
    39    19    13   ar
    40    23    24    1
