@<TRIPOS>MOLECULE
*****
 29 31 0 0 0
SMALL
GASTEIGER

@<TRIPOS>ATOM
      1 N          60.6806   88.8050   11.6126 N.3     1  UNL1       -0.1788
      2 H          60.6985   87.9944   12.2315 H       1  UNL1        0.1488
      3 S          61.8786   89.6393   11.9572 S.O2    1  UNL1        0.0622
      4 O          62.7278   88.4035   11.9964 O.2     1  UNL1       -0.1529
      5 O          61.0293   90.8751   11.9180 O.2     1  UNL1       -0.1529
      6 C          63.0766   90.4735   12.3018 C.ar    1  UNL1        0.1452
      7 C          63.5860   90.5080   13.7122 C.ar    1  UNL1        0.0620
      8 N          62.8973   89.7083   14.7781 N.pl3   1  UNL1       -0.3559
      9 C          64.7841   91.3423   14.0567 C.ar    1  UNL1        0.0269
     10 C          65.4727   92.1420   12.9909 C.ar    1  UNL1        0.0598
     11 CL         66.6708   92.9763   13.3354 Cl      1  UNL1       -0.0822
     12 C          64.9633   92.1075   11.5804 C.ar    1  UNL1        0.0242
     13 C          63.7653   91.2733   11.2359 C.ar    1  UNL1        0.0783
     14 CL         63.2560   91.2388    9.8254 Cl      1  UNL1       -0.0808
     15 H          62.1109   89.1607   14.5520 H       1  UNL1        0.1424
     16 H          63.2316   89.7309   15.7038 H       1  UNL1        0.1424
     17 C          60.5075   88.2811   10.2178 C.3     1  UNL1        0.0980
     18 C          59.7577   88.9199    7.8137 C.3     1  UNL1        0.0015
     19 C          60.5476   89.2242    9.0520 C.3     1  UNL1        0.0194
     20 C          60.2943   86.8141    9.9886 C.3     1  UNL1        0.1234
     21 N          61.4321   85.9545    9.5232 N.ar    1  UNL1       -0.3246
     22 C          61.8921   85.7929    8.1047 C.ar    1  UNL1        0.0760
     23 C          63.0539   84.8442    8.0995 C.ar    1  UNL1        0.0201
     24 C          63.3119   84.4194    9.5148 C.ar    1  UNL1        0.0173
     25 C          64.3301   83.4964   10.1159 C.ar    1  UNL1        0.0015
     26 C          64.3459   83.2597   11.5970 C.ar    1  UNL1        0.0001
     27 C          63.3435   83.9459   12.4769 C.ar    1  UNL1        0.0015
     28 C          62.3253   84.8689   11.8758 C.ar    1  UNL1        0.0172
     29 C          62.3096   85.1056   10.3947 C.ar    1  UNL1        0.0600
@<TRIPOS>BOND
     1    18    19    1
     2    17    19    1
     3    17    20    1
     4    20    21    1
     5    21    22   ar
     6    22    23   ar
     7    23    24   ar
     8    24    25   ar
     9    25    26   ar
    10    26    27   ar
    11    27    28   ar
    12    28    29   ar
    13    17     1    1
    14     1     3    1
    15     3     4    2
    16     3     5    2
    17     3     6    1
    18     6     7   ar
    19     7     8    1
    20     7     9   ar
    21     9    10   ar
    22    10    11    1
    23    10    12   ar
    24    12    13   ar
    25    13    14    1
    26    29    21   ar
    27    13     6   ar
    28    29    24   ar
    29     1     2    1
    30     8    15    1
    31     8    16    1
@<TRIPOS>MOLECULE
*****
 29 31 0 0 0
SMALL
GASTEIGER

@<TRIPOS>ATOM
      1 N          63.1327   87.0814   12.5677 N.3     1  UNL1       -0.1788
      2 H          62.7859   87.5175   13.4221 H       1  UNL1        0.1488
      3 S          62.9435   85.6022   12.7290 S.O2    1  UNL1        0.0622
      4 O          61.5960   85.7036   12.0780 O.2     1  UNL1       -0.1529
      5 O          64.2910   85.5008   13.3800 O.2     1  UNL1       -0.1529
      6 C          62.7542   84.1230   12.8903 C.ar    1  UNL1        0.1452
      7 C          62.2791   83.5660   14.1995 C.ar    1  UNL1        0.0620
      8 N          61.9932   84.4882   15.3475 N.pl3   1  UNL1       -0.3559
      9 C          62.0899   82.0866   14.3607 C.ar    1  UNL1        0.0269
     10 C          62.3757   81.1644   13.2128 C.ar    1  UNL1        0.0598
     11 CL         62.1865   79.6852   13.3741 Cl      1  UNL1       -0.0822
     12 C          62.8509   81.7215   11.9036 C.ar    1  UNL1        0.0242
     13 C          63.0401   83.2007   11.7424 C.ar    1  UNL1        0.0783
     14 CL         63.5153   83.7577   10.4332 Cl      1  UNL1       -0.0808
     15 H          62.1174   85.4591   15.2416 H       1  UNL1        0.1424
     16 H          61.6813   84.1226   16.2067 H       1  UNL1        0.1424
     17 C          62.4850   87.7998   11.4212 C.3     1  UNL1        0.0980
     18 C          61.2274   87.5644    9.1601 C.3     1  UNL1        0.0015
     19 C          62.2903   87.0977   10.1100 C.3     1  UNL1        0.0194
     20 C          62.0320   89.2203   11.5859 C.3     1  UNL1        0.1234
     21 N          63.0229   90.3410   11.4762 N.ar    1  UNL1       -0.3246
     22 C          63.2284   91.2223   10.2799 C.ar    1  UNL1        0.0760
     23 C          64.3148   92.2032   10.6080 C.ar    1  UNL1        0.0201
     24 C          64.7808   91.9281   12.0070 C.ar    1  UNL1        0.0173
     25 C          65.8290   92.5768   12.8616 C.ar    1  UNL1        0.0015
     26 C          66.0787   92.0747   14.2528 C.ar    1  UNL1        0.0001
     27 C          65.2803   90.9239   14.7894 C.ar    1  UNL1        0.0015
     28 C          64.2321   90.2751   13.9348 C.ar    1  UNL1        0.0172
     29 C          63.9824   90.7772   12.5436 C.ar    1  UNL1        0.0600
@<TRIPOS>BOND
     1    18    19    1
     2    17    19    1
     3    17    20    1
     4    20    21    1
     5    21    22   ar
     6    22    23   ar
     7    23    24   ar
     8    24    25   ar
     9    25    26   ar
    10    26    27   ar
    11    27    28   ar
    12    28    29   ar
    13    17     1    1
    14     1     3    1
    15     3     4    2
    16     3     5    2
    17     3     6    1
    18     6     7   ar
    19     7     8    1
    20     7     9   ar
    21     9    10   ar
    22    10    11    1
    23    10    12   ar
    24    12    13   ar
    25    13    14    1
    26    29    21   ar
    27    13     6   ar
    28    29    24   ar
    29     1     2    1
    30     8    15    1
    31     8    16    1
@<TRIPOS>MOLECULE
*****
 29 31 0 0 0
SMALL
GASTEIGER

@<TRIPOS>ATOM
      1 N          62.4200   90.4997   12.9863 N.3     1  UNL1       -0.1788
      2 H          62.8774   91.2761   12.5084 H       1  UNL1        0.1488
      3 S          61.9581   89.5483   11.9227 S.O2    1  UNL1        0.0622
      4 O          60.6461   89.3916   12.6327 O.2     1  UNL1       -0.1529
      5 O          63.2701   89.7050   11.2127 O.2     1  UNL1       -0.1529
      6 C          61.4962   88.5968   10.8590 C.ar    1  UNL1        0.1452
      7 C          60.5874   89.0770    9.7665 C.ar    1  UNL1        0.0620
      8 N          60.1405   90.5086    9.7377 N.pl3   1  UNL1       -0.3559
      9 C          60.1255   88.1254    8.7029 C.ar    1  UNL1        0.0269
     10 C          60.5723   86.6938    8.7318 C.ar    1  UNL1        0.0598
     11 CL         60.1103   85.7424    7.6682 Cl      1  UNL1       -0.0822
     12 C          61.4811   86.2137    9.8244 C.ar    1  UNL1        0.0242
     13 C          61.9430   87.1652   10.8879 C.ar    1  UNL1        0.0783
     14 CL         62.8518   86.6851   11.9804 Cl      1  UNL1       -0.0808
     15 H          60.4437   91.1331   10.4358 H       1  UNL1        0.1424
     16 H          59.5441   90.8237    9.0206 H       1  UNL1        0.1424
     17 C          63.3645   90.0310   14.0532 C.3     1  UNL1        0.0980
     18 C          63.3211   89.8772   16.6462 C.3     1  UNL1        0.0015
     19 C          62.8289   89.4094   15.3088 C.3     1  UNL1        0.0194
     20 C          64.8448   90.1840   13.8643 C.3     1  UNL1        0.1234
     21 N          65.4615   91.5513   13.8481 N.ar    1  UNL1       -0.3246
     22 C          66.0947   92.2469   15.0165 C.ar    1  UNL1        0.0760
     23 C          66.5777   93.5885   14.5510 C.ar    1  UNL1        0.0201
     24 C          66.2430   93.7221   13.0949 C.ar    1  UNL1        0.0173
     25 C          66.4773   94.8276   12.1085 C.ar    1  UNL1        0.0015
     26 C          66.0218   94.6740   10.6877 C.ar    1  UNL1        0.0001
     27 C          65.3319   93.4149   10.2533 C.ar    1  UNL1        0.0015
     28 C          65.0976   92.3094   11.2396 C.ar    1  UNL1        0.0172
     29 C          65.5531   92.4630   12.6605 C.ar    1  UNL1        0.0600
@<TRIPOS>BOND
     1    18    19    1
     2    17    19    1
     3    17    20    1
     4    20    21    1
     5    21    22   ar
     6    22    23   ar
     7    23    24   ar
     8    24    25   ar
     9    25    26   ar
    10    26    27   ar
    11    27    28   ar
    12    28    29   ar
    13    17     1    1
    14     1     3    1
    15     3     4    2
    16     3     5    2
    17     3     6    1
    18     6     7   ar
    19     7     8    1
    20     7     9   ar
    21     9    10   ar
    22    10    11    1
    23    10    12   ar
    24    12    13   ar
    25    13    14    1
    26    29    21   ar
    27    13     6   ar
    28    29    24   ar
    29     1     2    1
    30     8    15    1
    31     8    16    1
@<TRIPOS>MOLECULE
*****
 29 31 0 0 0
SMALL
GASTEIGER

@<TRIPOS>ATOM
      1 N          63.1818   84.6973   16.0071 N.3     1  UNL1       -0.1788
      2 H          62.2438   84.6690   16.4066 H       1  UNL1        0.1488
      3 S          63.1679   83.7998   14.8054 S.O2    1  UNL1        0.0622
      4 O          61.9891   84.5495   14.2592 O.2     1  UNL1       -0.1529
      5 O          64.3467   83.0500   15.3516 O.2     1  UNL1       -0.1529
      6 C          63.1539   82.9023   13.6036 C.ar    1  UNL1        0.1452
      7 C          62.3664   81.6259   13.6298 C.ar    1  UNL1        0.0620
      8 N          61.5929   81.2470   14.8579 N.pl3   1  UNL1       -0.3559
      9 C          62.3525   80.7285   12.4279 C.ar    1  UNL1        0.0269
     10 C          63.1260   81.1073   11.1999 C.ar    1  UNL1        0.0598
     11 CL         63.1121   80.2099    9.9981 Cl      1  UNL1       -0.0822
     12 C          63.9136   82.3838   11.1738 C.ar    1  UNL1        0.0242
     13 C          63.9275   83.2812   12.3756 C.ar    1  UNL1        0.0783
     14 CL         64.7150   84.5575   12.3494 Cl      1  UNL1       -0.0808
     15 H          61.6020   81.8361   15.6467 H       1  UNL1        0.1424
     16 H          61.0760   80.4093   14.8751 H       1  UNL1        0.1424
     17 C          63.5454   86.1449   15.8580 C.3     1  UNL1        0.0980
     18 C          62.6673   86.6934   18.2408 C.3     1  UNL1        0.0015
     19 C          63.0684   87.1459   16.8681 C.3     1  UNL1        0.0194
     20 C          64.3861   86.5915   14.6987 C.3     1  UNL1        0.1234
     21 N          64.1522   87.9362   14.0766 N.ar    1  UNL1       -0.3246
     22 C          64.6005   89.2551   14.6330 C.ar    1  UNL1        0.0760
     23 C          64.1542   90.3321   13.6892 C.ar    1  UNL1        0.0201
     24 C          63.4302   89.6789   12.5494 C.ar    1  UNL1        0.0173
     25 C          62.7718   90.2411   11.3245 C.ar    1  UNL1        0.0015
     26 C          62.1123   89.3226   10.3390 C.ar    1  UNL1        0.0001
     27 C          62.1110   87.8418   10.5785 C.ar    1  UNL1        0.0015
     28 C          62.7693   87.2796   11.8034 C.ar    1  UNL1        0.0172
     29 C          63.4289   88.1981   12.7889 C.ar    1  UNL1        0.0600
@<TRIPOS>BOND
     1    18    19    1
     2    17    19    1
     3    17    20    1
     4    20    21    1
     5    21    22   ar
     6    22    23   ar
     7    23    24   ar
     8    24    25   ar
     9    25    26   ar
    10    26    27   ar
    11    27    28   ar
    12    28    29   ar
    13    17     1    1
    14     1     3    1
    15     3     4    2
    16     3     5    2
    17     3     6    1
    18     6     7   ar
    19     7     8    1
    20     7     9   ar
    21     9    10   ar
    22    10    11    1
    23    10    12   ar
    24    12    13   ar
    25    13    14    1
    26    29    21   ar
    27    13     6   ar
    28    29    24   ar
    29     1     2    1
    30     8    15    1
    31     8    16    1
@<TRIPOS>MOLECULE
*****
 29 31 0 0 0
SMALL
GASTEIGER

@<TRIPOS>ATOM
      1 N          62.1892   90.0934   13.0773 N.3     1  UNL1       -0.1788
      2 H          61.6223   90.9412   13.0576 H       1  UNL1        0.1488
      3 S          61.7294   89.2384   11.9339 S.O2    1  UNL1        0.0622
      4 O          63.1406   89.1485   11.4337 O.2     1  UNL1       -0.1529
      5 O          60.3181   89.3283   12.4340 O.2     1  UNL1       -0.1529
      6 C          61.2696   88.3833   10.7904 C.ar    1  UNL1        0.1452
      7 C          60.4798   88.9914    9.6695 C.ar    1  UNL1        0.0620
      8 N          60.1498   90.4544    9.6920 N.pl3   1  UNL1       -0.3559
      9 C          60.0201   88.1362    8.5260 C.ar    1  UNL1        0.0269
     10 C          60.3502   86.6731    8.5035 C.ar    1  UNL1        0.0598
     11 CL         59.8905   85.8181    7.3600 Cl      1  UNL1       -0.0822
     12 C          61.1400   86.0652    9.6245 C.ar    1  UNL1        0.0242
     13 C          61.5997   86.9203   10.7679 C.ar    1  UNL1        0.0783
     14 CL         62.3895   86.3123   11.8889 Cl      1  UNL1       -0.0808
     15 H          60.4515   91.0156   10.4424 H       1  UNL1        0.1424
     16 H          59.6314   90.8534    8.9562 H       1  UNL1        0.1424
     17 C          63.6214   90.5320   13.1573 C.3     1  UNL1        0.0980
     18 C          65.3843   92.3398   12.5460 C.3     1  UNL1        0.0015
     19 C          64.1422   91.5699   12.2079 C.3     1  UNL1        0.0194
     20 C          64.5329   89.9326   14.1869 C.3     1  UNL1        0.1234
     21 N          63.9736   89.0413   15.2560 N.ar    1  UNL1       -0.3246
     22 C          63.2756   89.4929   16.5045 C.ar    1  UNL1        0.0760
     23 C          62.8847   88.2726   17.2842 C.ar    1  UNL1        0.0201
     24 C          63.3411   87.0668   16.5176 C.ar    1  UNL1        0.0173
     25 C          63.2308   85.5976   16.7991 C.ar    1  UNL1        0.0015
     26 C          63.7936   84.6035   15.8270 C.ar    1  UNL1        0.0001
     27 C          64.4665   85.0785   14.5734 C.ar    1  UNL1        0.0015
     28 C          64.5768   86.5477   14.2920 C.ar    1  UNL1        0.0172
     29 C          64.0141   87.5418   15.2641 C.ar    1  UNL1        0.0600
@<TRIPOS>BOND
     1    18    19    1
     2    17    19    1
     3    17    20    1
     4    20    21    1
     5    21    22   ar
     6    22    23   ar
     7    23    24   ar
     8    24    25   ar
     9    25    26   ar
    10    26    27   ar
    11    27    28   ar
    12    28    29   ar
    13    17     1    1
    14     1     3    1
    15     3     4    2
    16     3     5    2
    17     3     6    1
    18     6     7   ar
    19     7     8    1
    20     7     9   ar
    21     9    10   ar
    22    10    11    1
    23    10    12   ar
    24    12    13   ar
    25    13    14    1
    26    29    21   ar
    27    13     6   ar
    28    29    24   ar
    29     1     2    1
    30     8    15    1
    31     8    16    1
@<TRIPOS>MOLECULE
*****
 29 31 0 0 0
SMALL
GASTEIGER

@<TRIPOS>ATOM
      1 N          61.6499   89.9574   12.4482 N.3     1  UNL1       -0.1788
      2 H          61.3167   90.8599   12.1094 H       1  UNL1        0.1488
      3 S          61.4459   88.9743   11.3338 S.O2    1  UNL1        0.0622
      4 O          60.2391   88.4276   12.0372 O.2     1  UNL1       -0.1529
      5 O          62.6526   89.5211   10.6303 O.2     1  UNL1       -0.1529
      6 C          61.2417   87.9913   10.2194 C.ar    1  UNL1        0.1452
      7 C          60.4715   88.3930    8.9966 C.ar    1  UNL1        0.0620
      8 N          59.9054   89.7778    8.8881 N.pl3   1  UNL1       -0.3559
      9 C          60.2674   87.4097    7.8822 C.ar    1  UNL1        0.0269
     10 C          60.8335   86.0249    7.9907 C.ar    1  UNL1        0.0598
     11 CL         60.6294   85.0418    6.8763 Cl      1  UNL1       -0.0822
     12 C          61.6038   85.6233    9.2136 C.ar    1  UNL1        0.0242
     13 C          61.8078   86.6064   10.3279 C.ar    1  UNL1        0.0783
     14 CL         62.5781   86.2047   11.5507 Cl      1  UNL1       -0.0808
     15 H          60.0394   90.4230    9.6195 H       1  UNL1        0.1424
     16 H          59.3999   90.0414    8.0855 H       1  UNL1        0.1424
     17 C          63.0238   90.1846   13.0057 C.3     1  UNL1        0.0980
     18 C          64.2776   88.7858   14.8004 C.3     1  UNL1        0.0015
     19 C          63.8884   89.0143   13.3699 C.3     1  UNL1        0.0194
     20 C          63.5330   91.5823   13.1991 C.3     1  UNL1        0.1234
     21 N          64.9899   91.8831   13.0065 N.ar    1  UNL1       -0.3246
     22 C          65.7007   91.9946   11.6904 C.ar    1  UNL1        0.0760
     23 C          67.1418   92.3056   11.9668 C.ar    1  UNL1        0.0201
     24 C          67.3217   92.3863   13.4538 C.ar    1  UNL1        0.0173
     25 C          68.5247   92.6639   14.3057 C.ar    1  UNL1        0.0015
     26 C          68.3977   92.6802   15.8002 C.ar    1  UNL1        0.0001
     27 C          67.0677   92.4191   16.4428 C.ar    1  UNL1        0.0015
     28 C          65.8647   92.1416   15.5909 C.ar    1  UNL1        0.0172
     29 C          65.9917   92.1252   14.0964 C.ar    1  UNL1        0.0600
@<TRIPOS>BOND
     1    18    19    1
     2    17    19    1
     3    17    20    1
     4    20    21    1
     5    21    22   ar
     6    22    23   ar
     7    23    24   ar
     8    24    25   ar
     9    25    26   ar
    10    26    27   ar
    11    27    28   ar
    12    28    29   ar
    13    17     1    1
    14     1     3    1
    15     3     4    2
    16     3     5    2
    17     3     6    1
    18     6     7   ar
    19     7     8    1
    20     7     9   ar
    21     9    10   ar
    22    10    11    1
    23    10    12   ar
    24    12    13   ar
    25    13    14    1
    26    29    21   ar
    27    13     6   ar
    28    29    24   ar
    29     1     2    1
    30     8    15    1
    31     8    16    1
@<TRIPOS>MOLECULE
*****
 29 31 0 0 0
SMALL
GASTEIGER

@<TRIPOS>ATOM
      1 N          63.3916   87.0339   12.9324 N.3     1  UNL1       -0.1788
      2 H          63.1262   87.4142   13.8409 H       1  UNL1        0.1488
      3 S          63.1271   85.5585   12.9867 S.O2    1  UNL1        0.0622
      4 O          61.7716   85.7794   12.3836 O.2     1  UNL1       -0.1529
      5 O          64.4827   85.3375   13.5897 O.2     1  UNL1       -0.1529
      6 C          62.8626   84.0830   13.0409 C.ar    1  UNL1        0.1452
      7 C          63.0523   83.2414   11.8138 C.ar    1  UNL1        0.0620
      8 N          63.5065   83.8753   10.5324 N.pl3   1  UNL1       -0.3559
      9 C          62.7876   81.7659   11.8681 C.ar    1  UNL1        0.0269
     10 C          62.3334   81.1320   13.1494 C.ar    1  UNL1        0.0598
     11 CL         62.0688   79.6565   13.2036 Cl      1  UNL1       -0.0822
     12 C          62.1437   81.9736   14.3765 C.ar    1  UNL1        0.0242
     13 C          62.4083   83.4491   14.3222 C.ar    1  UNL1        0.0783
     14 CL         62.2186   84.2907   15.5493 Cl      1  UNL1       -0.0808
     15 H          63.6802   84.8437   10.4968 H       1  UNL1        0.1424
     16 H          63.6311   83.3229    9.7271 H       1  UNL1        0.1424
     17 C          62.7150   87.8796   11.8946 C.3     1  UNL1        0.0980
     18 C          61.6074   88.1109    9.5559 C.3     1  UNL1        0.0015
     19 C          62.3504   87.2872   10.5656 C.3     1  UNL1        0.0194
     20 C          62.4029   89.3176   12.1858 C.3     1  UNL1        0.1234
     21 N          63.3925   90.1639   12.9305 N.ar    1  UNL1       -0.3246
     22 C          63.6957   90.0815   14.3972 C.ar    1  UNL1        0.0760
     23 C          64.7432   91.1079   14.7123 C.ar    1  UNL1        0.0201
     24 C          65.0874   91.8246   13.4403 C.ar    1  UNL1        0.0173
     25 C          66.0530   92.9331   13.1426 C.ar    1  UNL1        0.0015
     26 C          66.1839   93.4582   11.7436 C.ar    1  UNL1        0.0001
     27 C          65.3491   92.8748   10.6424 C.ar    1  UNL1        0.0015
     28 C          64.3834   91.7663   10.9401 C.ar    1  UNL1        0.0172
     29 C          64.2526   91.2412   12.3391 C.ar    1  UNL1        0.0600
@<TRIPOS>BOND
     1    18    19    1
     2    17    19    1
     3    17    20    1
     4    20    21    1
     5    21    22   ar
     6    22    23   ar
     7    23    24   ar
     8    24    25   ar
     9    25    26   ar
    10    26    27   ar
    11    27    28   ar
    12    28    29   ar
    13    17     1    1
    14     1     3    1
    15     3     4    2
    16     3     5    2
    17     3     6    1
    18     6     7   ar
    19     7     8    1
    20     7     9   ar
    21     9    10   ar
    22    10    11    1
    23    10    12   ar
    24    12    13   ar
    25    13    14    1
    26    29    21   ar
    27    13     6   ar
    28    29    24   ar
    29     1     2    1
    30     8    15    1
    31     8    16    1
@<TRIPOS>MOLECULE
*****
 29 31 0 0 0
SMALL
GASTEIGER

@<TRIPOS>ATOM
      1 N          63.2909   83.5426   15.6764 N.3     1  UNL1       -0.1788
      2 H          64.2088   83.1897   15.9470 H       1  UNL1        0.1488
      3 S          63.3654   85.0392   15.7432 S.O2    1  UNL1        0.0622
      4 O          61.8903   85.1008   16.0078 O.2     1  UNL1       -0.1529
      5 O          64.8406   84.9776   15.4785 O.2     1  UNL1       -0.1529
      6 C          63.4399   86.5359   15.8100 C.ar    1  UNL1        0.1452
      7 C          63.8314   87.3223   14.5941 C.ar    1  UNL1        0.0620
      8 N          64.1483   86.6122   13.3115 N.pl3   1  UNL1       -0.3559
      9 C          63.9058   88.8191   14.6611 C.ar    1  UNL1        0.0269
     10 C          63.5889   89.5292   15.9437 C.ar    1  UNL1        0.0598
     11 CL         63.6633   91.0259   16.0105 Cl      1  UNL1       -0.0822
     12 C          63.1974   88.7427   17.1595 C.ar    1  UNL1        0.0242
     13 C          63.1229   87.2460   17.0926 C.ar    1  UNL1        0.0783
     14 CL         62.7315   86.4596   18.3084 Cl      1  UNL1       -0.0808
     15 H          64.0995   85.6299   13.2676 H       1  UNL1        0.1424
     16 H          64.4053   87.1284   12.5135 H       1  UNL1        0.1424
     17 C          62.9299   82.8664   14.3870 C.3     1  UNL1        0.0980
     18 C          62.2101   80.4877   13.6297 C.3     1  UNL1        0.0015
     19 C          63.2498   81.4147   14.1863 C.3     1  UNL1        0.0194
     20 C          62.2491   83.6419   13.2983 C.3     1  UNL1        0.1234
     21 N          62.8602   83.7082   11.9300 N.ar    1  UNL1       -0.3246
     22 C          63.9610   82.8305   11.4126 C.ar    1  UNL1        0.0760
     23 C          64.2589   83.2438   10.0017 C.ar    1  UNL1        0.0201
     24 C          63.3422   84.3770    9.6473 C.ar    1  UNL1        0.0173
     25 C          63.1830   85.1845    8.3933 C.ar    1  UNL1        0.0015
     26 C          62.1593   86.2791    8.3311 C.ar    1  UNL1        0.0001
     27 C          61.2948   86.5661    9.5229 C.ar    1  UNL1        0.0015
     28 C          61.4541   85.7586   10.7769 C.ar    1  UNL1        0.0172
     29 C          62.4778   84.6640   10.8390 C.ar    1  UNL1        0.0600
@<TRIPOS>BOND
     1    18    19    1
     2    17    19    1
     3    17    20    1
     4    20    21    1
     5    21    22   ar
     6    22    23   ar
     7    23    24   ar
     8    24    25   ar
     9    25    26   ar
    10    26    27   ar
    11    27    28   ar
    12    28    29   ar
    13    17     1    1
    14     1     3    1
    15     3     4    2
    16     3     5    2
    17     3     6    1
    18     6     7   ar
    19     7     8    1
    20     7     9   ar
    21     9    10   ar
    22    10    11    1
    23    10    12   ar
    24    12    13   ar
    25    13    14    1
    26    29    21   ar
    27    13     6   ar
    28    29    24   ar
    29     1     2    1
    30     8    15    1
    31     8    16    1
@<TRIPOS>MOLECULE
*****
 29 31 0 0 0
SMALL
GASTEIGER

@<TRIPOS>ATOM
      1 N          62.1521   90.0507   13.2307 N.3     1  UNL1       -0.1788
      2 H          62.2224   91.0082   12.8863 H       1  UNL1        0.1488
      3 S          61.7100   89.2055   12.0731 S.O2    1  UNL1        0.0622
      4 O          63.1003   89.2473   11.5117 O.2     1  UNL1       -0.1529
      5 O          60.3197   89.1637   12.6345 O.2     1  UNL1       -0.1529
      6 C          61.2680   88.3603   10.9154 C.ar    1  UNL1        0.1452
      7 C          61.6091   86.9001   10.8794 C.ar    1  UNL1        0.0620
      8 N          62.3923   86.2850   12.0011 N.pl3   1  UNL1       -0.3559
      9 C          61.1670   86.0550    9.7216 C.ar    1  UNL1        0.0269
     10 C          60.3838   86.6701    8.5999 C.ar    1  UNL1        0.0598
     11 CL         59.9418   85.8249    7.4422 Cl      1  UNL1       -0.0822
     12 C          60.0427   88.1304    8.6359 C.ar    1  UNL1        0.0242
     13 C          60.4848   88.9754    9.7937 C.ar    1  UNL1        0.0783
     14 CL         60.1436   90.4357    9.8296 Cl      1  UNL1       -0.0808
     15 H          62.6824   86.8397   12.7610 H       1  UNL1        0.1424
     16 H          62.6162   85.3266   11.9775 H       1  UNL1        0.1424
     17 C          63.4431   89.7467   13.9314 C.3     1  UNL1        0.0980
     18 C          64.1403   87.5927   15.2056 C.3     1  UNL1        0.0015
     19 C          63.9921   88.3508   13.9199 C.3     1  UNL1        0.0194
     20 C          64.1850   90.8387   14.6438 C.3     1  UNL1        0.1234
     21 N          65.4616   91.3768   14.0686 N.ar    1  UNL1       -0.3246
     22 C          66.7951   91.4043   14.7548 C.ar    1  UNL1        0.0760
     23 C          67.7864   92.0264   13.8165 C.ar    1  UNL1        0.0201
     24 C          67.0655   92.3834   12.5504 C.ar    1  UNL1        0.0173
     25 C          67.5317   93.0221   11.2758 C.ar    1  UNL1        0.0015
     26 C          66.5612   93.2593   10.1571 C.ar    1  UNL1        0.0001
     27 C          65.1243   92.8578   10.3129 C.ar    1  UNL1        0.0015
     28 C          64.6581   92.2191   11.5875 C.ar    1  UNL1        0.0172
     29 C          65.6286   91.9819   12.7062 C.ar    1  UNL1        0.0600
@<TRIPOS>BOND
     1    18    19    1
     2    17    19    1
     3    17    20    1
     4    20    21    1
     5    21    22   ar
     6    22    23   ar
     7    23    24   ar
     8    24    25   ar
     9    25    26   ar
    10    26    27   ar
    11    27    28   ar
    12    28    29   ar
    13    17     1    1
    14     1     3    1
    15     3     4    2
    16     3     5    2
    17     3     6    1
    18     6     7   ar
    19     7     8    1
    20     7     9   ar
    21     9    10   ar
    22    10    11    1
    23    10    12   ar
    24    12    13   ar
    25    13    14    1
    26    29    21   ar
    27    13     6   ar
    28    29    24   ar
    29     1     2    1
    30     8    15    1
    31     8    16    1
