@<TRIPOS>MOLECULE
*****
 35 39 0 0 0
SMALL
GASTEIGER

@<TRIPOS>ATOM
      1 C          64.4789   91.5039   13.1387 C.ar    1  UNL1        0.1512
      2 C          64.0619   90.6580   11.9723 C.ar    1  UNL1        0.0619
      3 C          63.2980   89.4811   12.5026 C.ar    1  UNL1        0.0987
      4 S          63.2429   89.5995   13.9969 S.2     1  UNL1       -0.0618
      5 C          63.9727   90.8496   14.3901 C.ar    1  UNL1        0.1178
      6 N          62.6951   88.3792   11.6827 N.ar    1  UNL1       -0.2823
      7 C          61.8433   88.5545   10.4605 C.ar    1  UNL1        0.1831
      8 N          61.4599   87.1921    9.9635 N.ar    1  UNL1       -0.2236
      9 C          62.0748   86.1749   10.8784 C.ar    1  UNL1        0.0991
     10 C          62.0382   84.6754   10.8813 C.ar    1  UNL1        0.0207
     11 C          62.7650   83.9095   11.9468 C.ar    1  UNL1        0.0046
     12 C          63.5284   84.6432   13.0093 C.ar    1  UNL1        0.0017
     13 C          63.5650   86.1427   13.0064 C.ar    1  UNL1        0.0191
     14 C          62.8382   86.9085   11.9410 C.ar    1  UNL1        0.0835
     15 C          62.7284   82.4099   11.9497 C.ar    1  UNL1        0.0397
     16 C          62.4762   81.5364   13.1428 C.ar    1  UNL1        0.1216
     17 N          62.5295   80.1073   12.6905 N.ar    1  UNL1       -0.1676
     18 N          62.8147   80.0974   11.2178 N.ar    1  UNL1       -0.2473
     19 C          62.9527   78.8785   10.3546 C.3     1  UNL1        0.1538
     20 C          62.9376   81.5205   10.7600 C.ar    1  UNL1        0.0967
     21 C          64.1629   91.3565   15.7890 C.2     1  UNL1        0.2518
     22 N          65.2545   92.3409   16.0881 N.am    1  UNL1       -0.3248
     23 O          63.2615   90.8791   16.8888 O.2     1  UNL1       -0.2697
     24 H          65.8461   92.6543   15.3663 H       1  UNL1        0.1453
     25 H          65.3793   92.6736   17.0062 H       1  UNL1        0.1453
     26 O          65.2641   92.7798   13.0666 O.3     1  UNL1       -0.4740
     27 C          67.7459   92.3422   13.6985 C.3     1  UNL1        0.0523
     28 C          66.7149   92.7472   12.6870 C.3     1  UNL1        0.1891
     29 C          67.1347   93.1196   11.2959 C.ar    1  UNL1        0.0278
     30 C          67.8747   92.1300   10.4456 C.ar    1  UNL1        0.0000
     31 C          68.2945   92.5024    9.0545 C.ar    1  UNL1       -0.0002
     32 C          67.9743   93.8644    8.5138 C.ar    1  UNL1        0.0008
     33 C          67.2344   94.8540    9.3641 C.ar    1  UNL1        0.0112
     34 C          66.8145   94.4816   10.7552 C.ar    1  UNL1        0.0570
     35 CL         66.0746   95.4712   11.6055 Cl      1  UNL1       -0.0825
@<TRIPOS>BOND
     1    28    27    1
     2    28    26    1
     3    26     1    1
     4     1     2   ar
     5     2     3   ar
     6     3     6    1
     7     6     7   ar
     8     7     8   ar
     9     8     9   ar
    10     9    10   ar
    11    10    11   ar
    12    11    15    1
    13    15    16   ar
    14    16    17   ar
    15    17    18   ar
    16    18    19    1
    17    18    20   ar
    18    11    12   ar
    19    12    13   ar
    20    13    14   ar
    21     3     4   ar
    22     4     5   ar
    23     5    21    1
    24    21    22   am
    25    21    23    2
    26    28    29    1
    27    29    30   ar
    28    30    31   ar
    29    31    32   ar
    30    32    33   ar
    31    33    34   ar
    32    34    35    1
    33     5     1   ar
    34    34    29   ar
    35    14     6   ar
    36    14     9   ar
    37    20    15   ar
    38    22    24    1
    39    22    25    1
@<TRIPOS>MOLECULE
*****
 35 39 0 0 0
SMALL
GASTEIGER

@<TRIPOS>ATOM
      1 C          65.5689   92.7002   13.3700 C.ar    1  UNL1        0.1512
      2 C          64.9208   91.8281   12.3359 C.ar    1  UNL1        0.0619
      3 C          64.2742   90.6736   13.0422 C.ar    1  UNL1        0.0987
      4 S          64.5227   90.8320   14.5129 S.2     1  UNL1       -0.0618
      5 C          65.3229   92.0845   14.7155 C.ar    1  UNL1        0.1178
      6 N          63.5128   89.5566   12.3920 N.ar    1  UNL1       -0.2823
      7 C          62.6306   89.6767   11.1848 C.ar    1  UNL1        0.1831
      8 N          62.0725   88.3178   10.8816 N.ar    1  UNL1       -0.2236
      9 C          62.6097   87.3579   11.9014 C.ar    1  UNL1        0.0991
     10 C          62.4034   85.8856   12.1007 C.ar    1  UNL1        0.0207
     11 C          63.0872   85.1790   13.2333 C.ar    1  UNL1        0.0046
     12 C          63.9774   85.9447   14.1668 C.ar    1  UNL1        0.0017
     13 C          64.1837   87.4169   13.9676 C.ar    1  UNL1        0.0191
     14 C          63.4999   88.1236   12.8349 C.ar    1  UNL1        0.0835
     15 C          62.8809   83.7066   13.4326 C.ar    1  UNL1        0.0397
     16 C          62.5421   83.0312   14.7284 C.ar    1  UNL1        0.1216
     17 N          62.4290   81.5584   14.4676 N.ar    1  UNL1       -0.1676
     18 N          62.6978   81.3235   13.0107 N.ar    1  UNL1       -0.2473
     19 C          62.6889   79.9944   12.3155 C.3     1  UNL1        0.1538
     20 C          62.9771   82.6512   12.3710 C.ar    1  UNL1        0.0967
     21 C          65.7943   92.6262   16.0325 C.2     1  UNL1        0.2518
     22 N          67.1316   93.2983   16.1316 N.am    1  UNL1       -0.3248
     23 O          64.9283   92.4959   17.2504 O.2     1  UNL1       -0.2697
     24 H          67.7000   93.3838   15.3323 H       1  UNL1        0.1453
     25 H          67.4410   93.6538   16.9960 H       1  UNL1        0.1453
     26 O          66.3295   93.9655   13.1051 O.3     1  UNL1       -0.4740
     27 C          65.6325   95.8151   11.4189 C.3     1  UNL1        0.0523
     28 C          66.3667   94.5425   11.7210 C.3     1  UNL1        0.1891
     29 C          67.1383   93.8468   10.6390 C.ar    1  UNL1        0.0278
     30 C          67.5428   92.4125   10.8099 C.ar    1  UNL1        0.0000
     31 C          68.3144   91.7168    9.7279 C.ar    1  UNL1       -0.0002
     32 C          68.6814   92.4554    8.4751 C.ar    1  UNL1        0.0008
     33 C          68.2769   93.8896    8.3042 C.ar    1  UNL1        0.0112
     34 C          67.5054   94.5854    9.3862 C.ar    1  UNL1        0.0570
     35 CL         67.1009   96.0196    9.2152 Cl      1  UNL1       -0.0825
@<TRIPOS>BOND
     1    28    27    1
     2    28    26    1
     3    26     1    1
     4     1     2   ar
     5     2     3   ar
     6     3     6    1
     7     6     7   ar
     8     7     8   ar
     9     8     9   ar
    10     9    10   ar
    11    10    11   ar
    12    11    15    1
    13    15    16   ar
    14    16    17   ar
    15    17    18   ar
    16    18    19    1
    17    18    20   ar
    18    11    12   ar
    19    12    13   ar
    20    13    14   ar
    21     3     4   ar
    22     4     5   ar
    23     5    21    1
    24    21    22   am
    25    21    23    2
    26    28    29    1
    27    29    30   ar
    28    30    31   ar
    29    31    32   ar
    30    32    33   ar
    31    33    34   ar
    32    34    35    1
    33     5     1   ar
    34    34    29   ar
    35    14     6   ar
    36    14     9   ar
    37    20    15   ar
    38    22    24    1
    39    22    25    1
@<TRIPOS>MOLECULE
*****
 35 39 0 0 0
SMALL
GASTEIGER

@<TRIPOS>ATOM
      1 C          65.0292   91.8412   12.8931 C.ar    1  UNL1        0.1512
      2 C          64.2284   90.6264   13.2576 C.ar    1  UNL1        0.0619
      3 C          64.5098   90.2994   14.6941 C.ar    1  UNL1        0.0987
      4 S          65.4845   91.3122   15.2177 S.2     1  UNL1       -0.0618
      5 C          65.8056   92.2651   14.1046 C.ar    1  UNL1        0.1178
      6 N          63.9200   89.1598   15.4709 N.ar    1  UNL1       -0.2823
      7 C          63.3315   89.2426   16.8482 C.ar    1  UNL1        0.1831
      8 N          62.8629   87.8713   17.2352 N.ar    1  UNL1       -0.2236
      9 C          63.1618   86.9409   16.0972 C.ar    1  UNL1        0.0991
     10 C          62.9235   85.4715   15.9130 C.ar    1  UNL1        0.0207
     11 C          63.3386   84.7984   14.6383 C.ar    1  UNL1        0.0046
     12 C          63.9919   85.5948   13.5479 C.ar    1  UNL1        0.0017
     13 C          64.2301   87.0642   13.7322 C.ar    1  UNL1        0.0191
     14 C          63.8151   87.7373   15.0068 C.ar    1  UNL1        0.0835
     15 C          63.1003   83.3289   14.4541 C.ar    1  UNL1        0.0397
     16 C          64.1547   82.2862   14.2289 C.ar    1  UNL1        0.1216
     17 N          63.4718   80.9570   14.0983 N.ar    1  UNL1       -0.1676
     18 N          61.9953   81.1784   14.2427 N.ar    1  UNL1       -0.2473
     19 C          60.9346   80.1197   14.1786 C.3     1  UNL1        0.1538
     20 C          61.7657   82.6443   14.4626 C.ar    1  UNL1        0.0967
     21 C          66.7391   93.4363   14.1883 C.2     1  UNL1        0.2518
     22 N          68.1454   93.2414   14.6723 N.am    1  UNL1       -0.3248
     23 O          66.2662   94.8024   13.7880 O.2     1  UNL1       -0.2697
     24 H          68.4558   92.3448   14.9350 H       1  UNL1        0.1453
     25 H          68.7581   94.0101   14.7272 H       1  UNL1        0.1453
     26 O          65.0501   92.5140   11.5527 O.3     1  UNL1       -0.4740
     27 C          67.5508   92.0022   11.0682 C.3     1  UNL1        0.0523
     28 C          66.3578   92.9006   10.9278 C.3     1  UNL1        0.1891
     29 C          66.4725   94.1856   10.1625 C.ar    1  UNL1        0.0278
     30 C          65.6351   95.3677   10.5519 C.ar    1  UNL1        0.0000
     31 C          65.7498   96.6527    9.7866 C.ar    1  UNL1       -0.0002
     32 C          66.7018   96.7556    8.6320 C.ar    1  UNL1        0.0008
     33 C          67.5391   95.5736    8.2427 C.ar    1  UNL1        0.0112
     34 C          67.4245   94.2885    9.0080 C.ar    1  UNL1        0.0570
     35 CL         68.2618   93.1065    8.6186 Cl      1  UNL1       -0.0825
@<TRIPOS>BOND
     1    28    27    1
     2    28    26    1
     3    26     1    1
     4     1     2   ar
     5     2     3   ar
     6     3     6    1
     7     6     7   ar
     8     7     8   ar
     9     8     9   ar
    10     9    10   ar
    11    10    11   ar
    12    11    15    1
    13    15    16   ar
    14    16    17   ar
    15    17    18   ar
    16    18    19    1
    17    18    20   ar
    18    11    12   ar
    19    12    13   ar
    20    13    14   ar
    21     3     4   ar
    22     4     5   ar
    23     5    21    1
    24    21    22   am
    25    21    23    2
    26    28    29    1
    27    29    30   ar
    28    30    31   ar
    29    31    32   ar
    30    32    33   ar
    31    33    34   ar
    32    34    35    1
    33     5     1   ar
    34    34    29   ar
    35    14     6   ar
    36    14     9   ar
    37    20    15   ar
    38    22    24    1
    39    22    25    1
@<TRIPOS>MOLECULE
*****
 35 39 0 0 0
SMALL
GASTEIGER

@<TRIPOS>ATOM
      1 C          61.4823   86.4238   10.2081 C.ar    1  UNL1        0.1512
      2 C          62.3796   87.4709   10.7985 C.ar    1  UNL1        0.0619
      3 C          62.1318   88.7583   10.0699 C.ar    1  UNL1        0.0987
      4 S          61.0813   88.5070    9.0291 S.2     1  UNL1       -0.0618
      5 C          60.6799   87.0643    9.1145 C.ar    1  UNL1        0.1178
      6 N          62.8145   90.0673   10.3354 N.ar    1  UNL1       -0.2823
      7 C          62.8089   91.2640    9.4311 C.ar    1  UNL1        0.1831
      8 N          63.6137   92.3456   10.0887 N.ar    1  UNL1       -0.2236
      9 C          64.1167   91.8174   11.3994 C.ar    1  UNL1        0.0991
     10 C          64.9607   92.4366   12.4737 C.ar    1  UNL1        0.0207
     11 C          65.3107   91.6478   13.7005 C.ar    1  UNL1        0.0046
     12 C          64.8168   90.2397   13.8530 C.ar    1  UNL1        0.0017
     13 C          63.9729   89.6204   12.7787 C.ar    1  UNL1        0.0191
     14 C          63.6228   90.4093   11.5519 C.ar    1  UNL1        0.0835
     15 C          66.1547   92.2670   14.7749 C.ar    1  UNL1        0.0397
     16 C          65.8091   92.3451   16.2324 C.ar    1  UNL1        0.1216
     17 N          66.9333   93.0433   16.9387 N.ar    1  UNL1       -0.1676
     18 N          67.9738   93.3967   15.9176 N.ar    1  UNL1       -0.2473
     19 C          69.2681   94.1054   16.1866 C.3     1  UNL1        0.1538
     20 C          67.4926   92.9170   14.5803 C.ar    1  UNL1        0.0967
     21 C          59.6558   86.3817    8.2568 C.2     1  UNL1        0.2518
     22 N          60.0673   85.2684    7.3397 N.am    1  UNL1       -0.3248
     23 O          58.2203   86.8126    8.3163 O.2     1  UNL1       -0.2697
     24 H          61.0095   84.9856    7.3007 H       1  UNL1        0.1453
     25 H          59.3952   84.8204    6.7768 H       1  UNL1        0.1453
     26 O          61.4016   84.9885   10.6361 O.3     1  UNL1       -0.4740
     27 C          63.5770   83.7140   10.0090 C.3     1  UNL1        0.0523
     28 C          62.6447   84.2584   11.0504 C.3     1  UNL1        0.1891
     29 C          62.9554   84.0726   12.5060 C.ar    1  UNL1        0.0278
     30 C          63.4910   85.2194   13.3110 C.ar    1  UNL1        0.0000
     31 C          63.8017   85.0336   14.7666 C.ar    1  UNL1       -0.0002
     32 C          63.5769   83.7010   15.4173 C.ar    1  UNL1        0.0008
     33 C          63.0413   82.5542   14.6125 C.ar    1  UNL1        0.0112
     34 C          62.7305   82.7399   13.1568 C.ar    1  UNL1        0.0570
     35 CL         62.1950   81.5931   12.3519 Cl      1  UNL1       -0.0825
@<TRIPOS>BOND
     1    28    27    1
     2    28    26    1
     3    26     1    1
     4     1     2   ar
     5     2     3   ar
     6     3     6    1
     7     6     7   ar
     8     7     8   ar
     9     8     9   ar
    10     9    10   ar
    11    10    11   ar
    12    11    15    1
    13    15    16   ar
    14    16    17   ar
    15    17    18   ar
    16    18    19    1
    17    18    20   ar
    18    11    12   ar
    19    12    13   ar
    20    13    14   ar
    21     3     4   ar
    22     4     5   ar
    23     5    21    1
    24    21    22   am
    25    21    23    2
    26    28    29    1
    27    29    30   ar
    28    30    31   ar
    29    31    32   ar
    30    32    33   ar
    31    33    34   ar
    32    34    35    1
    33     5     1   ar
    34    34    29   ar
    35    14     6   ar
    36    14     9   ar
    37    20    15   ar
    38    22    24    1
    39    22    25    1
@<TRIPOS>MOLECULE
*****
 35 39 0 0 0
SMALL
GASTEIGER

@<TRIPOS>ATOM
      1 C          63.6373   87.3487   14.3477 C.ar    1  UNL1        0.1512
      2 C          64.3372   88.5492   13.7830 C.ar    1  UNL1        0.0619
      3 C          64.5250   89.5409   14.8925 C.ar    1  UNL1        0.0987
      4 S          63.9411   88.9535   16.1431 S.2     1  UNL1       -0.0618
      5 C          63.3924   87.5986   15.8063 C.ar    1  UNL1        0.1178
      6 N          65.1815   90.8844   14.7726 N.ar    1  UNL1       -0.2823
      7 C          65.8941   91.6185   15.8696 C.ar    1  UNL1        0.1831
      8 N          66.3935   92.9173   15.3096 N.ar    1  UNL1       -0.2236
      9 C          65.9896   92.9859   13.8666 C.ar    1  UNL1        0.0991
     10 C          66.2072   94.0301   12.8121 C.ar    1  UNL1        0.0207
     11 C          65.6756   93.8179   11.4256 C.ar    1  UNL1        0.0046
     12 C          64.9265   92.5615   11.0937 C.ar    1  UNL1        0.0017
     13 C          64.7089   91.5172   12.1483 C.ar    1  UNL1        0.0191
     14 C          65.2405   91.7295   13.5348 C.ar    1  UNL1        0.0835
     15 C          65.8931   94.8622   10.3709 C.ar    1  UNL1        0.0397
     16 C          65.0523   96.0853   10.1545 C.ar    1  UNL1        0.1216
     17 N          65.6292   96.8457    8.9974 N.ar    1  UNL1       -0.1676
     18 N          66.8267   96.0924    8.4985 N.ar    1  UNL1       -0.2473
     19 C          67.7065   96.4944    7.3521 C.3     1  UNL1        0.1538
     20 C          66.9898   94.8665    9.3474 C.ar    1  UNL1        0.0967
     21 C          62.7174   86.6586   16.7608 C.2     1  UNL1        0.2518
     22 N          61.9608   85.4738   16.2376 N.am    1  UNL1       -0.3248
     23 O          62.7991   86.9034   18.2384 O.2     1  UNL1       -0.2697
     24 H          61.9072   85.3131   15.2677 H       1  UNL1        0.1453
     25 H          61.5178   84.8569   16.8640 H       1  UNL1        0.1453
     26 O          63.2501   86.1151   13.5873 O.3     1  UNL1       -0.4740
     27 C          65.2886   84.8485   14.5824 C.3     1  UNL1        0.0523
     28 C          64.1259   84.8983   13.6360 C.3     1  UNL1        0.1891
     29 C          63.8389   83.7313   12.7384 C.ar    1  UNL1        0.0278
     30 C          64.3905   83.7045   11.3437 C.ar    1  UNL1        0.0000
     31 C          64.1035   82.5375   10.4461 C.ar    1  UNL1       -0.0002
     32 C          63.2650   81.3974   10.9431 C.ar    1  UNL1        0.0008
     33 C          62.7135   81.4242   12.3377 C.ar    1  UNL1        0.0112
     34 C          63.0004   82.5912   13.2354 C.ar    1  UNL1        0.0570
     35 CL         62.4489   82.6181   14.6300 Cl      1  UNL1       -0.0825
@<TRIPOS>BOND
     1    28    27    1
     2    28    26    1
     3    26     1    1
     4     1     2   ar
     5     2     3   ar
     6     3     6    1
     7     6     7   ar
     8     7     8   ar
     9     8     9   ar
    10     9    10   ar
    11    10    11   ar
    12    11    15    1
    13    15    16   ar
    14    16    17   ar
    15    17    18   ar
    16    18    19    1
    17    18    20   ar
    18    11    12   ar
    19    12    13   ar
    20    13    14   ar
    21     3     4   ar
    22     4     5   ar
    23     5    21    1
    24    21    22   am
    25    21    23    2
    26    28    29    1
    27    29    30   ar
    28    30    31   ar
    29    31    32   ar
    30    32    33   ar
    31    33    34   ar
    32    34    35    1
    33     5     1   ar
    34    34    29   ar
    35    14     6   ar
    36    14     9   ar
    37    20    15   ar
    38    22    24    1
    39    22    25    1
@<TRIPOS>MOLECULE
*****
 35 39 0 0 0
SMALL
GASTEIGER

@<TRIPOS>ATOM
      1 C          64.5834   90.5424   14.2072 C.ar    1  UNL1        0.1512
      2 C          64.2687   89.0786   14.1172 C.ar    1  UNL1        0.0619
      3 C          63.8136   88.6181   15.4702 C.ar    1  UNL1        0.0987
      4 S          63.8471   89.7973   16.3966 S.2     1  UNL1       -0.0618
      5 C          64.3228   90.9866   15.6161 C.ar    1  UNL1        0.1178
      6 N          63.3981   87.2232   15.8332 N.ar    1  UNL1       -0.2823
      7 C          62.9470   86.7619   17.1874 C.ar    1  UNL1        0.1831
      8 N          62.6308   85.2984   17.0968 N.ar    1  UNL1       -0.2236
      9 C          62.8865   84.8553   15.6868 C.ar    1  UNL1        0.0991
     10 C          62.7488   83.5222   15.0130 C.ar    1  UNL1        0.0207
     11 C          63.0853   83.3788   13.5583 C.ar    1  UNL1        0.0046
     12 C          63.5595   84.5684   12.7774 C.ar    1  UNL1        0.0017
     13 C          63.6972   85.9015   13.4511 C.ar    1  UNL1        0.0191
     14 C          63.3607   86.0449   14.9058 C.ar    1  UNL1        0.0835
     15 C          62.9476   82.0457   12.8845 C.ar    1  UNL1        0.0397
     16 C          62.6341   80.7441   13.5609 C.ar    1  UNL1        0.1216
     17 N          62.5920   79.6742   12.5105 N.ar    1  UNL1       -0.1676
     18 N          62.8794   80.3145   11.1848 N.ar    1  UNL1       -0.2473
     19 C          62.9369   79.6125    9.8605 C.3     1  UNL1        0.1538
     20 C          63.0992   81.7802   11.4160 C.ar    1  UNL1        0.0967
     21 C          64.5058   92.3762   16.1505 C.2     1  UNL1        0.2518
     22 N          65.8064   93.0942   15.9434 N.am    1  UNL1       -0.3248
     23 O          63.3882   93.0478   16.8922 O.2     1  UNL1       -0.2697
     24 H          66.5399   92.6535   15.4566 H       1  UNL1        0.1453
     25 H          65.9265   94.0063   16.2942 H       1  UNL1        0.1453
     26 O          65.0727   91.4097   13.0855 O.3     1  UNL1       -0.4740
     27 C          67.4787   91.3557   14.0645 C.3     1  UNL1        0.0523
     28 C          66.5367   91.7072   12.9513 C.3     1  UNL1        0.1891
     29 C          67.0588   92.3563   11.7038 C.ar    1  UNL1        0.0278
     30 C          67.9429   91.5839   10.7701 C.ar    1  UNL1        0.0000
     31 C          68.4650   92.2329    9.5227 C.ar    1  UNL1       -0.0002
     32 C          68.1030   93.6544    9.2090 C.ar    1  UNL1        0.0008
     33 C          67.2190   94.4267   10.1426 C.ar    1  UNL1        0.0112
     34 C          66.6968   93.7777   11.3901 C.ar    1  UNL1        0.0570
     35 CL         65.8128   94.5501   12.3237 Cl      1  UNL1       -0.0825
@<TRIPOS>BOND
     1    28    27    1
     2    28    26    1
     3    26     1    1
     4     1     2   ar
     5     2     3   ar
     6     3     6    1
     7     6     7   ar
     8     7     8   ar
     9     8     9   ar
    10     9    10   ar
    11    10    11   ar
    12    11    15    1
    13    15    16   ar
    14    16    17   ar
    15    17    18   ar
    16    18    19    1
    17    18    20   ar
    18    11    12   ar
    19    12    13   ar
    20    13    14   ar
    21     3     4   ar
    22     4     5   ar
    23     5    21    1
    24    21    22   am
    25    21    23    2
    26    28    29    1
    27    29    30   ar
    28    30    31   ar
    29    31    32   ar
    30    32    33   ar
    31    33    34   ar
    32    34    35    1
    33     5     1   ar
    34    34    29   ar
    35    14     6   ar
    36    14     9   ar
    37    20    15   ar
    38    22    24    1
    39    22    25    1
@<TRIPOS>MOLECULE
*****
 35 39 0 0 0
SMALL
GASTEIGER

@<TRIPOS>ATOM
      1 C          63.5223   90.2972   13.1664 C.ar    1  UNL1        0.1512
      2 C          63.1127   88.8631   13.3265 C.ar    1  UNL1        0.0619
      3 C          63.9523   88.2596   14.4131 C.ar    1  UNL1        0.0987
      4 S          64.8809   89.3207   14.9247 S.2     1  UNL1       -0.0618
      5 C          64.6152   90.5800   14.1542 C.ar    1  UNL1        0.1178
      6 N          63.8766   86.8436   14.9023 N.ar    1  UNL1       -0.2823
      7 C          64.0223   86.3937   16.3258 C.ar    1  UNL1        0.1831
      8 N          63.8777   84.9010   16.3571 N.ar    1  UNL1       -0.2236
      9 C          63.6426   84.4284   14.9531 C.ar    1  UNL1        0.0991
     10 C          63.4291   83.0600   14.3771 C.ar    1  UNL1        0.0207
     11 C          63.2150   82.8922   12.9020 C.ar    1  UNL1        0.0046
     12 C          63.2143   84.0929   12.0029 C.ar    1  UNL1        0.0017
     13 C          63.4278   85.4613   12.5788 C.ar    1  UNL1        0.0191
     14 C          63.6420   85.6291   14.0539 C.ar    1  UNL1        0.0835
     15 C          63.0014   81.5237   12.3260 C.ar    1  UNL1        0.0397
     16 C          62.5749   80.3035   13.0870 C.ar    1  UNL1        0.1216
     17 N          62.4868   79.1609   12.1192 N.ar    1  UNL1       -0.1676
     18 N          62.8590   79.6750   10.7600 N.ar    1  UNL1       -0.2473
     19 C          62.9050   78.8701    9.4951 C.3     1  UNL1        0.1538
     20 C          63.1770   81.1353   10.8878 C.ar    1  UNL1        0.0967
     21 C          65.3188   91.8918   14.3391 C.2     1  UNL1        0.2518
     22 N          65.8741   92.6190   13.1505 N.am    1  UNL1       -0.3248
     23 O          65.4671   92.4763   15.7125 O.2     1  UNL1       -0.2697
     24 H          65.7768   92.2354   12.2490 H       1  UNL1        0.1453
     25 H          66.3360   93.4800   13.2718 H       1  UNL1        0.1453
     26 O          62.9412   91.2764   12.1901 O.3     1  UNL1       -0.4740
     27 C          63.2904   91.7041    9.6514 C.3     1  UNL1        0.0523
     28 C          62.7221   90.8718   10.7624 C.3     1  UNL1        0.1891
     29 C          61.9347   89.6350   10.4458 C.ar    1  UNL1        0.0278
     30 C          62.6251   88.4323    9.8740 C.ar    1  UNL1        0.0000
     31 C          61.8377   87.1955    9.5574 C.ar    1  UNL1       -0.0002
     32 C          60.3599   87.1614    9.8125 C.ar    1  UNL1        0.0008
     33 C          59.6696   88.3640   10.3842 C.ar    1  UNL1        0.0112
     34 C          60.4570   89.6009   10.7009 C.ar    1  UNL1        0.0570
     35 CL         59.7666   90.8036   11.2726 Cl      1  UNL1       -0.0825
@<TRIPOS>BOND
     1    28    27    1
     2    28    26    1
     3    26     1    1
     4     1     2   ar
     5     2     3   ar
     6     3     6    1
     7     6     7   ar
     8     7     8   ar
     9     8     9   ar
    10     9    10   ar
    11    10    11   ar
    12    11    15    1
    13    15    16   ar
    14    16    17   ar
    15    17    18   ar
    16    18    19    1
    17    18    20   ar
    18    11    12   ar
    19    12    13   ar
    20    13    14   ar
    21     3     4   ar
    22     4     5   ar
    23     5    21    1
    24    21    22   am
    25    21    23    2
    26    28    29    1
    27    29    30   ar
    28    30    31   ar
    29    31    32   ar
    30    32    33   ar
    31    33    34   ar
    32    34    35    1
    33     5     1   ar
    34    34    29   ar
    35    14     6   ar
    36    14     9   ar
    37    20    15   ar
    38    22    24    1
    39    22    25    1
@<TRIPOS>MOLECULE
*****
 35 39 0 0 0
SMALL
GASTEIGER

@<TRIPOS>ATOM
      1 C          60.4767   88.6841    8.8968 C.ar    1  UNL1        0.1512
      2 C          60.1067   89.9564    8.1937 C.ar    1  UNL1        0.0619
      3 C          59.6129   89.6018    6.8225 C.ar    1  UNL1        0.0987
      4 S          59.6776   88.1102    6.6780 S.2     1  UNL1       -0.0618
      5 C          60.2114   87.5430    7.9599 C.ar    1  UNL1        0.1178
      6 N          59.1378   90.5689    5.7790 N.ar    1  UNL1       -0.2823
      7 C          57.7253   91.0364    5.5880 C.ar    1  UNL1        0.1831
      8 N          57.7063   91.9947    4.4342 N.ar    1  UNL1       -0.2236
      9 C          59.1070   92.1194    3.9120 C.ar    1  UNL1        0.0991
     10 C          59.6911   92.9215    2.7872 C.ar    1  UNL1        0.0207
     11 C          61.1599   92.8424    2.4934 C.ar    1  UNL1        0.0046
     12 C          62.0446   91.9611    3.3246 C.ar    1  UNL1        0.0017
     13 C          61.4605   91.1590    4.4494 C.ar    1  UNL1        0.0191
     14 C          59.9917   91.2382    4.7432 C.ar    1  UNL1        0.0835
     15 C          61.7441   93.6445    1.3685 C.ar    1  UNL1        0.0397
     16 C          60.9790   94.5150    0.4162 C.ar    1  UNL1        0.1216
     17 N          61.9580   95.1254   -0.5424 N.ar    1  UNL1       -0.1676
     18 N          63.3282   94.6322   -0.1826 N.ar    1  UNL1       -0.2473
     19 C          64.6062   94.9912   -0.8811 C.3     1  UNL1        0.1538
     20 C          63.1960   93.7169    0.9984 C.ar    1  UNL1        0.0967
     21 C          60.4399   86.0898    8.2535 C.2     1  UNL1        0.2518
     22 N          61.0052   85.6722    9.5787 N.am    1  UNL1       -0.3248
     23 O          60.1030   85.0542    7.2219 O.2     1  UNL1       -0.2697
     24 H          61.2263   86.3519   10.2557 H       1  UNL1        0.1453
     25 H          61.1551   84.7185    9.7714 H       1  UNL1        0.1453
     26 O          61.0169   88.5724   10.2915 O.3     1  UNL1       -0.4740
     27 C          59.8415   90.2609   11.8782 C.3     1  UNL1        0.0523
     28 C          61.0765   89.7852   11.1721 C.3     1  UNL1        0.1891
     29 C          62.3712   90.5224   11.3467 C.ar    1  UNL1        0.0278
     30 C          62.9739   91.2638   10.1904 C.ar    1  UNL1        0.0000
     31 C          64.2686   92.0009   10.3650 C.ar    1  UNL1       -0.0002
     32 C          64.9604   91.9968   11.6958 C.ar    1  UNL1        0.0008
     33 C          64.3577   91.2555   12.8521 C.ar    1  UNL1        0.0112
     34 C          63.0630   90.5182   12.6776 C.ar    1  UNL1        0.0570
     35 CL         62.4603   89.7769   13.8339 Cl      1  UNL1       -0.0825
@<TRIPOS>BOND
     1    28    27    1
     2    28    26    1
     3    26     1    1
     4     1     2   ar
     5     2     3   ar
     6     3     6    1
     7     6     7   ar
     8     7     8   ar
     9     8     9   ar
    10     9    10   ar
    11    10    11   ar
    12    11    15    1
    13    15    16   ar
    14    16    17   ar
    15    17    18   ar
    16    18    19    1
    17    18    20   ar
    18    11    12   ar
    19    12    13   ar
    20    13    14   ar
    21     3     4   ar
    22     4     5   ar
    23     5    21    1
    24    21    22   am
    25    21    23    2
    26    28    29    1
    27    29    30   ar
    28    30    31   ar
    29    31    32   ar
    30    32    33   ar
    31    33    34   ar
    32    34    35    1
    33     5     1   ar
    34    34    29   ar
    35    14     6   ar
    36    14     9   ar
    37    20    15   ar
    38    22    24    1
    39    22    25    1
