@<TRIPOS>MOLECULE
*****
 14 15 0 0 0
SMALL
GASTEIGER

@<TRIPOS>ATOM
      1 C          63.3812   85.4883   15.6144 C.ar    1  UNL1        0.1393
      2 C          64.6845   85.4565   14.8725 C.ar    1  UNL1        0.0385
      3 C          65.0208   84.2858   13.9971 C.ar    1  UNL1        0.0228
      4 C          64.0539   83.1469   13.8637 C.ar    1  UNL1        0.0894
      5 N          64.1103   81.8688   13.0805 N.ar    1  UNL1       -0.2245
      6 C          62.8419   81.1107   13.3383 C.ar    1  UNL1        0.1567
      7 N          62.4779   79.7772   12.7558 N.pl3   1  UNL1       -0.3375
      8 S          62.0015   81.9202   14.2809 S.2     1  UNL1       -0.0519
      9 C          62.7506   83.1787   14.6055 C.ar    1  UNL1        0.0527
     10 C          62.4143   84.3494   15.4809 C.ar    1  UNL1        0.0450
     11 H          63.0992   79.3215   12.1430 H       1  UNL1        0.1442
     12 H          61.6176   79.3576   12.9864 H       1  UNL1        0.1442
     13 C          62.6306   86.4361   17.9140 C.3     1  UNL1        0.2525
     14 O          63.0449   86.6591   16.4897 O.3     1  UNL1       -0.4714
@<TRIPOS>BOND
     1    13    14    1
     2    14     1    1
     3     1     2   ar
     4     2     3   ar
     5     3     4   ar
     6     4     5   ar
     7     5     6   ar
     8     6     7    1
     9     6     8   ar
    10     8     9   ar
    11     9    10   ar
    12    10     1   ar
    13     9     4   ar
    14     7    11    1
    15     7    12    1
@<TRIPOS>MOLECULE
*****
 14 15 0 0 0
SMALL
GASTEIGER

@<TRIPOS>ATOM
      1 C          63.8899   89.8697   13.9250 C.ar    1  UNL1        0.1393
      2 C          63.1683   89.7666   12.6141 C.ar    1  UNL1        0.0385
      3 C          63.4886   90.7236   11.5043 C.ar    1  UNL1        0.0228
      4 C          64.5305   91.7837   11.7055 C.ar    1  UNL1        0.0894
      5 N          65.0556   92.8594   10.8015 N.ar    1  UNL1       -0.2245
      6 C          66.1017   93.6273   11.5537 C.ar    1  UNL1        0.1567
      7 N          66.8882   94.7919   11.0291 N.pl3   1  UNL1       -0.3375
      8 S          66.2233   93.0262   12.9226 S.2     1  UNL1       -0.0519
      9 C          65.2522   91.8868   13.0164 C.ar    1  UNL1        0.0527
     10 C          64.9319   90.9298   14.1261 C.ar    1  UNL1        0.0450
     11 H          66.7361   95.1155   10.1118 H       1  UNL1        0.1442
     12 H          67.5565   95.2327   11.6021 H       1  UNL1        0.1442
     13 C          63.1788   89.4345   16.3856 C.3     1  UNL1        0.2525
     14 O          63.5696   88.9127   15.0348 O.3     1  UNL1       -0.4714
@<TRIPOS>BOND
     1    13    14    1
     2    14     1    1
     3     1     2   ar
     4     2     3   ar
     5     3     4   ar
     6     4     5   ar
     7     5     6   ar
     8     6     7    1
     9     6     8   ar
    10     8     9   ar
    11     9    10   ar
    12    10     1   ar
    13     9     4   ar
    14     7    11    1
    15     7    12    1
@<TRIPOS>MOLECULE
*****
 14 15 0 0 0
SMALL
GASTEIGER

@<TRIPOS>ATOM
      1 C          62.3781   85.6027    9.7530 C.ar    1  UNL1        0.1393
      2 C          63.2552   84.5502    9.1425 C.ar    1  UNL1        0.0385
      3 C          63.9150   83.5245   10.0158 C.ar    1  UNL1        0.0228
      4 C          63.6976   83.5514   11.4997 C.ar    1  UNL1        0.0894
      5 N          64.2115   82.6777   12.6054 N.ar    1  UNL1       -0.2245
      6 C          63.6519   83.1902   13.8993 C.ar    1  UNL1        0.1567
      7 N          63.9073   82.6135   15.2603 N.pl3   1  UNL1       -0.3375
      8 S          62.7922   84.3807   13.5933 S.2     1  UNL1       -0.0519
      9 C          62.8204   84.6039   12.1102 C.ar    1  UNL1        0.0527
     10 C          62.1607   85.6295   11.2369 C.ar    1  UNL1        0.0450
     11 H          64.4897   81.8260   15.3599 H       1  UNL1        0.1442
     12 H          63.4926   83.0225   16.0540 H       1  UNL1        0.1442
     13 C          60.3512   86.3691    8.3197 C.3     1  UNL1        0.2525
     14 O          61.7184   86.6284    8.8797 O.3     1  UNL1       -0.4714
@<TRIPOS>BOND
     1    13    14    1
     2    14     1    1
     3     1     2   ar
     4     2     3   ar
     5     3     4   ar
     6     4     5   ar
     7     5     6   ar
     8     6     7    1
     9     6     8   ar
    10     8     9   ar
    11     9    10   ar
    12    10     1   ar
    13     9     4   ar
    14     7    11    1
    15     7    12    1
@<TRIPOS>MOLECULE
*****
 14 15 0 0 0
SMALL
GASTEIGER

@<TRIPOS>ATOM
      1 C          63.8994   90.7236   14.3518 C.ar    1  UNL1        0.1393
      2 C          65.0713   91.2500   15.1261 C.ar    1  UNL1        0.0385
      3 C          66.0927   92.1130   14.4465 C.ar    1  UNL1        0.0228
      4 C          65.9424   92.4495   12.9925 C.ar    1  UNL1        0.0894
      5 N          66.7828   93.2708   12.0602 N.ar    1  UNL1       -0.2245
      6 C          66.1304   93.2520   10.7097 C.ar    1  UNL1        0.1567
      7 N          66.6334   93.9445    9.4778 N.pl3   1  UNL1       -0.3375
      8 S          64.8867   92.4191   10.8072 S.2     1  UNL1       -0.0519
      9 C          64.7706   91.9231   12.2182 C.ar    1  UNL1        0.0527
     10 C          63.7491   91.0602   12.8978 C.ar    1  UNL1        0.0450
     11 H          67.4645   94.4710    9.5137 H       1  UNL1        0.1442
     12 H          66.1324   93.8726    8.6334 H       1  UNL1        0.1442
     13 C          63.1287   89.3545   16.4209 C.3     1  UNL1        0.2525
     14 O          62.8779   89.8607   15.0314 O.3     1  UNL1       -0.4714
@<TRIPOS>BOND
     1    13    14    1
     2    14     1    1
     3     1     2   ar
     4     2     3   ar
     5     3     4   ar
     6     4     5   ar
     7     5     6   ar
     8     6     7    1
     9     6     8   ar
    10     8     9   ar
    11     9    10   ar
    12    10     1   ar
    13     9     4   ar
    14     7    11    1
    15     7    12    1
@<TRIPOS>MOLECULE
*****
 14 15 0 0 0
SMALL
GASTEIGER

@<TRIPOS>ATOM
      1 C          64.0615   82.9163   12.7371 C.ar    1  UNL1        0.1393
      2 C          62.9178   82.1389   13.3181 C.ar    1  UNL1        0.0385
      3 C          62.2322   82.6281   14.5593 C.ar    1  UNL1        0.0228
      4 C          62.6903   83.8947   15.2195 C.ar    1  UNL1        0.0894
      5 N          62.2119   84.6187   16.4431 N.ar    1  UNL1       -0.2245
      6 C          63.0600   85.8435   16.6182 C.ar    1  UNL1        0.1567
      7 N          62.9286   86.8572   17.7161 N.pl3   1  UNL1       -0.3375
      8 S          64.0625   85.8765   15.5030 S.2     1  UNL1       -0.0519
      9 C          63.8339   84.6721   14.6385 C.ar    1  UNL1        0.0527
     10 C          64.5196   84.1829   13.3973 C.ar    1  UNL1        0.0450
     11 H          62.2354   86.7480   18.4065 H       1  UNL1        0.1442
     12 H          63.5355   87.6318   17.7461 H       1  UNL1        0.1442
     13 C          64.3169   82.9348   10.1517 C.3     1  UNL1        0.2525
     14 O          64.7472   82.4270   11.4959 O.3     1  UNL1       -0.4714
@<TRIPOS>BOND
     1    13    14    1
     2    14     1    1
     3     1     2   ar
     4     2     3   ar
     5     3     4   ar
     6     4     5   ar
     7     5     6   ar
     8     6     7    1
     9     6     8   ar
    10     8     9   ar
    11     9    10   ar
    12    10     1   ar
    13     9     4   ar
    14     7    11    1
    15     7    12    1
@<TRIPOS>MOLECULE
*****
 14 15 0 0 0
SMALL
GASTEIGER

@<TRIPOS>ATOM
      1 C          61.0410   86.6952    9.6786 C.ar    1  UNL1        0.1393
      2 C          61.7598   86.2990    8.4231 C.ar    1  UNL1        0.0385
      3 C          62.8233   85.2423    8.4694 C.ar    1  UNL1        0.0228
      4 C          63.1681   84.5816    9.7712 C.ar    1  UNL1        0.0894
      5 N          64.1635   83.5163   10.1235 N.ar    1  UNL1       -0.2245
      6 C          64.0599   83.2539   11.5967 C.ar    1  UNL1        0.1567
      7 N          64.8730   82.2624   12.3751 N.pl3   1  UNL1       -0.3375
      8 S          63.0005   84.1572   12.1550 S.2     1  UNL1       -0.0519
      9 C          62.4493   84.9778   11.0267 C.ar    1  UNL1        0.0527
     10 C          61.3858   86.0345   10.9804 C.ar    1  UNL1        0.0450
     11 H          65.5484   81.7118   11.9168 H       1  UNL1        0.1442
     12 H          64.7313   82.1621   13.3441 H       1  UNL1        0.1442
     13 C          60.2151   89.0224    8.8712 C.3     1  UNL1        0.2525
     14 O          59.9775   87.7519    9.6324 O.3     1  UNL1       -0.4714
@<TRIPOS>BOND
     1    13    14    1
     2    14     1    1
     3     1     2   ar
     4     2     3   ar
     5     3     4   ar
     6     4     5   ar
     7     5     6   ar
     8     6     7    1
     9     6     8   ar
    10     8     9   ar
    11     9    10   ar
    12    10     1   ar
    13     9     4   ar
    14     7    11    1
    15     7    12    1
@<TRIPOS>MOLECULE
*****
 14 15 0 0 0
SMALL
GASTEIGER

@<TRIPOS>ATOM
      1 C          63.1481   81.2322   11.3974 C.ar    1  UNL1        0.1393
      2 C          62.5624   80.4205   12.5145 C.ar    1  UNL1        0.0385
      3 C          62.5669   80.9584   13.9148 C.ar    1  UNL1        0.0228
      4 C          63.1572   82.3080   14.1979 C.ar    1  UNL1        0.0894
      5 N          63.3028   83.0936   15.4673 N.ar    1  UNL1       -0.2245
      6 C          63.9785   84.3909   15.1348 C.ar    1  UNL1        0.1567
      7 N          64.3218   85.4806   16.1067 N.pl3   1  UNL1       -0.3375
      8 S          64.2505   84.4070   13.6598 S.2     1  UNL1       -0.0519
      9 C          63.7428   83.1197   13.0807 C.ar    1  UNL1        0.0527
     10 C          63.7383   82.5818   11.6805 C.ar    1  UNL1        0.0450
     11 H          64.1016   85.3769   17.0606 H       1  UNL1        0.1442
     12 H          64.7674   86.2997   15.7907 H       1  UNL1        0.1442
     13 C          62.8382   79.2466    9.7509 C.3     1  UNL1        0.2525
     14 O          63.1436   80.6943    9.9972 O.3     1  UNL1       -0.4714
@<TRIPOS>BOND
     1    13    14    1
     2    14     1    1
     3     1     2   ar
     4     2     3   ar
     5     3     4   ar
     6     4     5   ar
     7     5     6   ar
     8     6     7    1
     9     6     8   ar
    10     8     9   ar
    11     9    10   ar
    12    10     1   ar
    13     9     4   ar
    14     7    11    1
    15     7    12    1
@<TRIPOS>MOLECULE
*****
 14 15 0 0 0
SMALL
GASTEIGER

@<TRIPOS>ATOM
      1 C          63.1805   90.7678   11.9733 C.ar    1  UNL1        0.1393
      2 C          63.7061   91.5098   10.7804 C.ar    1  UNL1        0.0385
      3 C          64.9940   92.2724   10.8792 C.ar    1  UNL1        0.0228
      4 C          65.7563   92.2929   12.1709 C.ar    1  UNL1        0.0894
      5 N          67.0445   92.9521   12.5659 N.ar    1  UNL1       -0.2245
      6 C          67.3150   92.6174   14.0029 C.ar    1  UNL1        0.1567
      7 N          68.4987   93.0695   14.8057 N.pl3   1  UNL1       -0.3375
      8 S          66.1940   91.7514   14.4960 S.2     1  UNL1       -0.0519
      9 C          65.2306   91.5508   13.3638 C.ar    1  UNL1        0.0527
     10 C          63.9427   90.7882   13.2649 C.ar    1  UNL1        0.0450
     11 H          69.1859   93.6397   14.3911 H       1  UNL1        0.1442
     12 H          68.5884   92.7961   15.7472 H       1  UNL1        0.1442
     13 C          60.9293   90.3008   10.7632 C.3     1  UNL1        0.2525
     14 O          61.8925   90.0052   11.8744 O.3     1  UNL1       -0.4714
@<TRIPOS>BOND
     1    13    14    1
     2    14     1    1
     3     1     2   ar
     4     2     3   ar
     5     3     4   ar
     6     4     5   ar
     7     5     6   ar
     8     6     7    1
     9     6     8   ar
    10     8     9   ar
    11     9    10   ar
    12    10     1   ar
    13     9     4   ar
    14     7    11    1
    15     7    12    1
@<TRIPOS>MOLECULE
*****
 14 15 0 0 0
SMALL
GASTEIGER

@<TRIPOS>ATOM
      1 C          62.8307   89.1347   11.8173 C.ar    1  UNL1        0.1393
      2 C          62.9198   90.1415   10.7090 C.ar    1  UNL1        0.0385
      3 C          63.7179   91.3973   10.8988 C.ar    1  UNL1        0.0228
      4 C          64.4269   91.6463   12.1970 C.ar    1  UNL1        0.0894
      5 N          65.2819   92.7837   12.6715 N.ar    1  UNL1       -0.2245
      6 C          65.7213   92.4799   14.0732 C.ar    1  UNL1        0.1567
      7 N          66.5915   93.3488   14.9323 N.pl3   1  UNL1       -0.3375
      8 S          65.1378   91.1547   14.4649 S.2     1  UNL1       -0.0519
      9 C          64.3378   90.6396   13.3053 C.ar    1  UNL1        0.0527
     10 C          63.5397   89.3838   13.1155 C.ar    1  UNL1        0.0450
     11 H          66.9276   94.2061   14.5842 H       1  UNL1        0.1442
     12 H          66.8264   93.0617   15.8442 H       1  UNL1        0.1442
     13 C          60.7003   87.9336   10.9406 C.3     1  UNL1        0.2525
     14 O          62.0326   87.8789   11.6275 O.3     1  UNL1       -0.4714
@<TRIPOS>BOND
     1    13    14    1
     2    14     1    1
     3     1     2   ar
     4     2     3   ar
     5     3     4   ar
     6     4     5   ar
     7     5     6   ar
     8     6     7    1
     9     6     8   ar
    10     8     9   ar
    11     9    10   ar
    12    10     1   ar
    13     9     4   ar
    14     7    11    1
    15     7    12    1
