@<TRIPOS>MOLECULE
*****
 35 38 0 0 0
SMALL
GASTEIGER

@<TRIPOS>ATOM
      1 N          62.8684   90.6628   12.1445 N.am    1  UNL1       -0.2627
      2 C          63.7029   91.5779   11.2983 C.2     1  UNL1        0.2478
      3 O          63.6866   91.4411    9.8046 O.2     1  UNL1       -0.2729
      4 H          62.8792   90.7526   13.1248 H       1  UNL1        0.1568
      5 C          61.2596   87.8454   10.0138 C.ar    1  UNL1        0.0527
      6 C          60.1568   88.1381   10.9876 C.ar    1  UNL1        0.1074
      7 N          60.6252   89.2291   11.9043 N.ar    1  UNL1       -0.2224
      8 C          62.0175   89.6107   11.4971 C.ar    1  UNL1        0.1656
      9 S          62.4096   88.7555   10.3287 S.2     1  UNL1       -0.0513
     10 N          61.0990   83.7528    5.6293 N.pl3   1  UNL1       -0.3426
     11 C          61.1391   84.7759    6.7254 C.ar    1  UNL1        0.1254
     12 C          62.4058   84.9989    7.4972 C.ar    1  UNL1        0.0339
     13 C          62.4460   86.0220    8.5934 C.ar    1  UNL1        0.0049
     14 C          61.2194   86.8222    8.9177 C.ar    1  UNL1        0.0269
     15 C          59.9527   86.5993    8.1459 C.ar    1  UNL1        0.1008
     16 N          59.9126   85.5761    7.0497 N.ar    1  UNL1       -0.2296
     17 H          61.9040   83.2275    5.4164 H       1  UNL1        0.1437
     18 H          60.2676   83.6064    5.1227 H       1  UNL1        0.1437
     19 C          64.5538   92.6299   11.9457 C.3     1  UNL1        0.1799
     20 N          66.0264   92.4023   12.1178 N.am    1  UNL1       -0.2636
     21 C          66.5564   91.8704   13.4164 C.2     1  UNL1        0.2497
     22 O          68.0290   91.6427   13.5885 O.2     1  UNL1       -0.2699
     23 C          65.6138   91.5662   14.5429 C.ar    1  UNL1        0.0567
     24 C          65.5185   92.4989   15.7138 C.ar    1  UNL1        0.0252
     25 C          64.5759   92.1947   16.8402 C.ar    1  UNL1        0.0990
     26 N          63.7285   90.9578   16.7958 N.ar    1  UNL1       -0.2423
     27 C          63.8238   90.0250   15.6249 C.ar    1  UNL1        0.0990
     28 C          64.7664   90.3292   14.4985 C.ar    1  UNL1        0.0252
     29 C          66.9690   92.7065   10.9914 C.3     1  UNL1        0.1209
     30 C          67.0230   94.0887   10.4111 C.ar    1  UNL1       -0.0023
     31 C          67.5988   94.3059    9.0432 C.ar    1  UNL1       -0.0026
     32 C          67.6529   95.6880    8.4628 C.ar    1  UNL1       -0.0003
     33 C          67.1310   96.8530    9.2506 C.ar    1  UNL1       -0.0000
     34 C          66.5552   96.6359   10.6185 C.ar    1  UNL1       -0.0003
     35 C          66.5012   95.2537   11.1988 C.ar    1  UNL1       -0.0026
@<TRIPOS>BOND
     1    10    11    1
     2    11    12   ar
     3    12    13   ar
     4    13    14   ar
     5    14     5    1
     6     5     6   ar
     7     6     7   ar
     8     7     8   ar
     9     8     1    1
    10     1     2   am
    11     2     3    2
    12     2    19    1
    13    19    20    1
    14    20    29    1
    15    29    30    1
    16    30    31   ar
    17    31    32   ar
    18    32    33   ar
    19    33    34   ar
    20    34    35   ar
    21    20    21   am
    22    21    22    2
    23    21    23    1
    24    23    24   ar
    25    24    25   ar
    26    25    26   ar
    27    26    27   ar
    28    27    28   ar
    29     8     9   ar
    30    14    15   ar
    31    15    16   ar
    32    16    11   ar
    33     9     5   ar
    34    35    30   ar
    35    28    23   ar
    36    10    17    1
    37    10    18    1
    38     1     4    1
@<TRIPOS>MOLECULE
*****
 35 38 0 0 0
SMALL
GASTEIGER

@<TRIPOS>ATOM
      1 N          62.4083   90.1086   10.5197 N.am    1  UNL1       -0.2627
      2 C          60.9158   90.2367   10.4424 C.2     1  UNL1        0.2478
      3 O          60.1272   90.5738   11.6730 O.2     1  UNL1       -0.2729
      4 H          62.9259   89.8873    9.7120 H       1  UNL1        0.1568
      5 C          64.6730   91.1128   13.5078 C.ar    1  UNL1        0.0527
      6 C          63.7182   90.1663   14.1730 C.ar    1  UNL1        0.1074
      7 N          62.7536   89.6749   13.1346 N.ar    1  UNL1       -0.2224
      8 C          63.1123   90.3177   11.8276 C.ar    1  UNL1        0.1656
      9 S          64.2985   91.2063   12.0583 S.2     1  UNL1       -0.0513
     10 N          69.1959   94.0147   16.1763 N.pl3   1  UNL1       -0.3426
     11 C          68.0652   93.2892   15.5092 C.ar    1  UNL1        0.1254
     12 C          66.8752   92.8547   16.3123 C.ar    1  UNL1        0.0339
     13 C          65.7445   92.1292   15.6452 C.ar    1  UNL1        0.0049
     14 C          65.8037   91.8383   14.1749 C.ar    1  UNL1        0.0269
     15 C          66.9937   92.2728   13.3718 C.ar    1  UNL1        0.1008
     16 N          68.1244   92.9983   14.0389 N.ar    1  UNL1       -0.2296
     17 H          69.1570   94.2057   17.1414 H       1  UNL1        0.1437
     18 H          69.9770   94.2999   15.6492 H       1  UNL1        0.1437
     19 C          60.2119   90.0276    9.1344 C.3     1  UNL1        0.1799
     20 N          59.7184   88.6619    8.7583 N.am    1  UNL1       -0.2636
     21 C          59.1225   88.4271    7.4018 C.2     1  UNL1        0.2497
     22 O          58.6289   87.0615    7.0257 O.2     1  UNL1       -0.2699
     23 C          59.0201   89.5579    6.4216 C.ar    1  UNL1        0.0567
     24 C          60.2593   90.1100    5.7816 C.ar    1  UNL1        0.0252
     25 C          60.1570   91.2407    4.8013 C.ar    1  UNL1        0.0990
     26 N          58.8155   91.8194    4.4611 N.ar    1  UNL1       -0.2423
     27 C          57.5764   91.2672    5.1011 C.ar    1  UNL1        0.0990
     28 C          57.6787   90.1365    6.0814 C.ar    1  UNL1        0.0252
     29 C          59.8207   87.5312    9.7385 C.3     1  UNL1        0.1209
     30 C          60.9847   86.5872    9.6758 C.ar    1  UNL1       -0.0023
     31 C          61.6602   86.3154    8.3644 C.ar    1  UNL1       -0.0026
     32 C          62.8242   85.3715    8.3016 C.ar    1  UNL1       -0.0003
     33 C          63.3129   84.6993    9.5504 C.ar    1  UNL1       -0.0000
     34 C          62.6375   84.9711   10.8619 C.ar    1  UNL1       -0.0003
     35 C          61.4734   85.9151   10.9246 C.ar    1  UNL1       -0.0026
@<TRIPOS>BOND
     1    10    11    1
     2    11    12   ar
     3    12    13   ar
     4    13    14   ar
     5    14     5    1
     6     5     6   ar
     7     6     7   ar
     8     7     8   ar
     9     8     1    1
    10     1     2   am
    11     2     3    2
    12     2    19    1
    13    19    20    1
    14    20    29    1
    15    29    30    1
    16    30    31   ar
    17    31    32   ar
    18    32    33   ar
    19    33    34   ar
    20    34    35   ar
    21    20    21   am
    22    21    22    2
    23    21    23    1
    24    23    24   ar
    25    24    25   ar
    26    25    26   ar
    27    26    27   ar
    28    27    28   ar
    29     8     9   ar
    30    14    15   ar
    31    15    16   ar
    32    16    11   ar
    33     9     5   ar
    34    35    30   ar
    35    28    23   ar
    36    10    17    1
    37    10    18    1
    38     1     4    1
@<TRIPOS>MOLECULE
*****
 35 38 0 0 0
SMALL
GASTEIGER

@<TRIPOS>ATOM
      1 N          64.4255   88.9492   14.0283 N.am    1  UNL1       -0.2627
      2 C          63.3608   90.0054   13.9984 C.2     1  UNL1        0.2478
      3 O          61.9675   89.6788   14.4476 O.2     1  UNL1       -0.2729
      4 H          65.3401   89.1636   13.7335 H       1  UNL1        0.1568
      5 C          63.5878   85.1934   14.5361 C.ar    1  UNL1        0.0527
      6 C          63.5946   85.6832   15.9539 C.ar    1  UNL1        0.1074
      7 N          63.9092   87.1497   15.9363 N.ar    1  UNL1       -0.2224
      8 C          64.0969   87.5664   14.5076 C.ar    1  UNL1        0.1656
      9 S          63.8982   86.3573   13.6423 S.2     1  UNL1       -0.0513
     10 N          62.5083   79.5670   12.7535 N.pl3   1  UNL1       -0.3426
     11 C          62.7782   80.9736   13.1991 C.ar    1  UNL1        0.1254
     12 C          63.6547   81.8671   12.3726 C.ar    1  UNL1        0.0339
     13 C          63.9246   83.2737   12.8182 C.ar    1  UNL1        0.0049
     14 C          63.3179   83.7868   14.0905 C.ar    1  UNL1        0.0269
     15 C          62.4413   82.8933   14.9170 C.ar    1  UNL1        0.1008
     16 N          62.1714   81.4867   14.4713 N.ar    1  UNL1       -0.2296
     17 H          62.9065   79.2302   11.9184 H       1  UNL1        0.1437
     18 H          61.9329   78.9806   13.2960 H       1  UNL1        0.1437
     19 C          63.6896   91.3882   13.5191 C.3     1  UNL1        0.1799
     20 N          64.3181   91.5852   12.1715 N.am    1  UNL1       -0.2636
     21 C          65.7286   92.0851   12.0676 C.2     1  UNL1        0.2497
     22 O          66.3572   92.2821   10.7200 O.2     1  UNL1       -0.2699
     23 C          66.5105   92.3879   13.3114 C.ar    1  UNL1        0.0567
     24 C          67.1905   91.2791   14.0584 C.ar    1  UNL1        0.0252
     25 C          67.9723   91.5819   15.3021 C.ar    1  UNL1        0.0990
     26 N          68.0742   92.9936   15.7989 N.ar    1  UNL1       -0.2423
     27 C          67.3943   94.1025   15.0519 C.ar    1  UNL1        0.0990
     28 C          66.6124   93.7996   13.8081 C.ar    1  UNL1        0.0252
     29 C          63.5363   91.2824   10.9277 C.3     1  UNL1        0.1209
     30 C          62.4106   90.2920   10.9720 C.ar    1  UNL1       -0.0023
     31 C          61.0007   90.7670   11.1634 C.ar    1  UNL1       -0.0026
     32 C          59.8750   89.7767   11.2076 C.ar    1  UNL1       -0.0003
     33 C          60.1592   88.3112   11.0605 C.ar    1  UNL1       -0.0000
     34 C          61.5690   87.8361   10.8691 C.ar    1  UNL1       -0.0003
     35 C          62.6947   88.8265   10.8249 C.ar    1  UNL1       -0.0026
@<TRIPOS>BOND
     1    10    11    1
     2    11    12   ar
     3    12    13   ar
     4    13    14   ar
     5    14     5    1
     6     5     6   ar
     7     6     7   ar
     8     7     8   ar
     9     8     1    1
    10     1     2   am
    11     2     3    2
    12     2    19    1
    13    19    20    1
    14    20    29    1
    15    29    30    1
    16    30    31   ar
    17    31    32   ar
    18    32    33   ar
    19    33    34   ar
    20    34    35   ar
    21    20    21   am
    22    21    22    2
    23    21    23    1
    24    23    24   ar
    25    24    25   ar
    26    25    26   ar
    27    26    27   ar
    28    27    28   ar
    29     8     9   ar
    30    14    15   ar
    31    15    16   ar
    32    16    11   ar
    33     9     5   ar
    34    35    30   ar
    35    28    23   ar
    36    10    17    1
    37    10    18    1
    38     1     4    1
@<TRIPOS>MOLECULE
*****
 35 38 0 0 0
SMALL
GASTEIGER

@<TRIPOS>ATOM
      1 N          62.8694   90.6771   12.6826 N.am    1  UNL1       -0.2627
      2 C          63.9461   91.4440   11.9737 C.2     1  UNL1        0.2478
      3 O          64.1324   91.2818   10.4942 O.2     1  UNL1       -0.2729
      4 H          62.7472   90.7836   13.6537 H       1  UNL1        0.1568
      5 C          61.1957   88.0959   10.3158 C.ar    1  UNL1        0.0527
      6 C          60.0216   88.5405   11.1367 C.ar    1  UNL1        0.1074
      7 N          60.5056   89.5615   12.1232 N.ar    1  UNL1       -0.2224
      8 C          61.9789   89.7480   11.9121 C.ar    1  UNL1        0.1656
      9 S          62.4054   88.8422   10.7951 S.2     1  UNL1       -0.0513
     10 N          61.0746   84.0441    5.8923 N.pl3   1  UNL1       -0.3426
     11 C          61.1049   85.0571    6.9982 C.ar    1  UNL1        0.1254
     12 C          62.3713   85.2901    7.7673 C.ar    1  UNL1        0.0339
     13 C          62.4016   86.3031    8.8732 C.ar    1  UNL1        0.0049
     14 C          61.1654   87.0830    9.2099 C.ar    1  UNL1        0.0269
     15 C          59.8989   86.8499    8.4408 C.ar    1  UNL1        0.1008
     16 N          59.8686   85.8370    7.3349 N.ar    1  UNL1       -0.2296
     17 H          61.8860   83.5322    5.6712 H       1  UNL1        0.1437
     18 H          60.2433   83.8912    5.3874 H       1  UNL1        0.1437
     19 C          64.8366   92.3730   12.7443 C.3     1  UNL1        0.1799
     20 N          66.2164   91.9353   13.1375 N.am    1  UNL1       -0.2636
     21 C          67.3988   92.3526   12.3141 C.2     1  UNL1        0.2497
     22 O          68.7786   91.9149   12.7073 O.2     1  UNL1       -0.2699
     23 C          67.2014   93.2078   11.0977 C.ar    1  UNL1        0.0567
     24 C          67.8647   92.8367    9.8045 C.ar    1  UNL1        0.0252
     25 C          67.6673   93.6919    8.5880 C.ar    1  UNL1        0.0990
     26 N          66.8066   94.9180    8.6648 N.ar    1  UNL1       -0.2423
     27 C          66.1433   95.2890    9.9580 C.ar    1  UNL1        0.0990
     28 C          66.3407   94.4339   11.1744 C.ar    1  UNL1        0.0252
     29 C          66.4137   91.0801   14.3539 C.3     1  UNL1        0.1209
     30 C          65.2346   90.4232   15.0083 C.ar    1  UNL1       -0.0023
     31 C          64.9119   88.9897   14.7069 C.ar    1  UNL1       -0.0026
     32 C          63.7329   88.3326   15.3612 C.ar    1  UNL1       -0.0003
     33 C          62.8764   89.1093   16.3170 C.ar    1  UNL1       -0.0000
     34 C          63.1991   90.5428   16.6183 C.ar    1  UNL1       -0.0003
     35 C          64.3782   91.1998   15.9640 C.ar    1  UNL1       -0.0026
@<TRIPOS>BOND
     1    10    11    1
     2    11    12   ar
     3    12    13   ar
     4    13    14   ar
     5    14     5    1
     6     5     6   ar
     7     6     7   ar
     8     7     8   ar
     9     8     1    1
    10     1     2   am
    11     2     3    2
    12     2    19    1
    13    19    20    1
    14    20    29    1
    15    29    30    1
    16    30    31   ar
    17    31    32   ar
    18    32    33   ar
    19    33    34   ar
    20    34    35   ar
    21    20    21   am
    22    21    22    2
    23    21    23    1
    24    23    24   ar
    25    24    25   ar
    26    25    26   ar
    27    26    27   ar
    28    27    28   ar
    29     8     9   ar
    30    14    15   ar
    31    15    16   ar
    32    16    11   ar
    33     9     5   ar
    34    35    30   ar
    35    28    23   ar
    36    10    17    1
    37    10    18    1
    38     1     4    1
@<TRIPOS>MOLECULE
*****
 35 38 0 0 0
SMALL
GASTEIGER

@<TRIPOS>ATOM
      1 N          64.2412   88.7627   13.8610 N.am    1  UNL1       -0.2627
      2 C          63.3610   89.8456   14.4109 C.2     1  UNL1        0.2478
      3 O          62.3353   89.5201   15.4559 O.2     1  UNL1       -0.2729
      4 H          64.9144   88.9763   13.1751 H       1  UNL1        0.1568
      5 C          63.6978   84.9609   14.4239 C.ar    1  UNL1        0.0527
      6 C          64.0461   85.4125   15.8113 C.ar    1  UNL1        0.1074
      7 N          64.2921   86.8916   15.7693 N.ar    1  UNL1       -0.2224
      8 C          64.0958   87.3542   14.3560 C.ar    1  UNL1        0.1656
      9 S          63.7285   86.1609   13.5245 S.2     1  UNL1       -0.0513
     10 N          62.4083   79.3412   12.7638 N.pl3   1  UNL1       -0.3426
     11 C          62.7307   80.7461   13.1788 C.ar    1  UNL1        0.1254
     12 C          61.9095   81.4231   14.2359 C.ar    1  UNL1        0.0339
     13 C          62.2319   82.8280   14.6509 C.ar    1  UNL1        0.0049
     14 C          63.3754   83.5560   14.0089 C.ar    1  UNL1        0.0269
     15 C          64.1966   82.8791   12.9518 C.ar    1  UNL1        0.1008
     16 N          63.8742   81.4742   12.5368 N.ar    1  UNL1       -0.2296
     17 H          61.6577   78.8634   13.1852 H       1  UNL1        0.1437
     18 H          62.9472   78.8969   12.0700 H       1  UNL1        0.1437
     19 C          63.5065   91.2540   13.9159 C.3     1  UNL1        0.1799
     20 N          64.1536   91.5194   12.5889 N.am    1  UNL1       -0.2636
     21 C          63.5531   90.9552   11.3354 C.2     1  UNL1        0.2497
     22 O          64.2001   91.2206   10.0084 O.2     1  UNL1       -0.2699
     23 C          62.3056   90.1255   11.4090 C.ar    1  UNL1        0.0567
     24 C          62.3608   88.6590   11.0985 C.ar    1  UNL1        0.0252
     25 C          61.1133   87.8294   11.1721 C.ar    1  UNL1        0.0990
     26 N          59.8106   88.4662   11.5561 N.ar    1  UNL1       -0.2423
     27 C          59.7554   89.9326   11.8666 C.ar    1  UNL1        0.0990
     28 C          61.0029   90.7623   11.7930 C.ar    1  UNL1        0.0252
     29 C          65.4010   92.3491   12.5154 C.3     1  UNL1        0.1209
     30 C          66.3670   92.3543   13.6629 C.ar    1  UNL1       -0.0023
     31 C          65.9111   92.7858   15.0252 C.ar    1  UNL1       -0.0026
     32 C          66.8770   92.7911   16.1728 C.ar    1  UNL1       -0.0003
     33 C          68.2991   92.3648   15.9579 C.ar    1  UNL1       -0.0000
     34 C          68.7551   91.9333   14.5956 C.ar    1  UNL1       -0.0003
     35 C          67.7891   91.9280   13.4481 C.ar    1  UNL1       -0.0026
@<TRIPOS>BOND
     1    10    11    1
     2    11    12   ar
     3    12    13   ar
     4    13    14   ar
     5    14     5    1
     6     5     6   ar
     7     6     7   ar
     8     7     8   ar
     9     8     1    1
    10     1     2   am
    11     2     3    2
    12     2    19    1
    13    19    20    1
    14    20    29    1
    15    29    30    1
    16    30    31   ar
    17    31    32   ar
    18    32    33   ar
    19    33    34   ar
    20    34    35   ar
    21    20    21   am
    22    21    22    2
    23    21    23    1
    24    23    24   ar
    25    24    25   ar
    26    25    26   ar
    27    26    27   ar
    28    27    28   ar
    29     8     9   ar
    30    14    15   ar
    31    15    16   ar
    32    16    11   ar
    33     9     5   ar
    34    35    30   ar
    35    28    23   ar
    36    10    17    1
    37    10    18    1
    38     1     4    1
@<TRIPOS>MOLECULE
*****
 35 38 0 0 0
SMALL
GASTEIGER

@<TRIPOS>ATOM
      1 N          60.3980   87.3729   10.8901 N.am    1  UNL1       -0.2627
      2 C          61.5594   86.4592   11.1477 C.2     1  UNL1        0.2478
      3 O          62.2943   85.8377    9.9972 O.2     1  UNL1       -0.2729
      4 H          59.9156   87.7808   11.6452 H       1  UNL1        0.1568
      5 C          59.5578   88.8207    7.3881 C.ar    1  UNL1        0.0527
      6 C          59.0725   87.4089    7.2422 C.ar    1  UNL1        0.1074
      7 N          59.3281   86.6947    8.5362 N.ar    1  UNL1       -0.2224
      8 C          59.9715   87.6651    9.4820 C.ar    1  UNL1        0.1656
      9 S          60.1134   88.9790    8.7724 S.2     1  UNL1       -0.0513
     10 N          59.3187   93.0856    3.1747 N.pl3   1  UNL1       -0.3426
     11 C          59.3785   92.0194    4.2280 C.ar    1  UNL1        0.1254
     12 C          60.6969   91.4126    4.6070 C.ar    1  UNL1        0.0339
     13 C          60.7566   90.3463    5.6604 C.ar    1  UNL1        0.0049
     14 C          59.4980   89.8869    6.3348 C.ar    1  UNL1        0.0269
     15 C          58.1797   90.4937    5.9558 C.ar    1  UNL1        0.1008
     16 N          58.1199   91.5599    4.9024 N.ar    1  UNL1       -0.2296
     17 H          60.1448   93.3871    2.7321 H       1  UNL1        0.1437
     18 H          58.4534   93.4839    2.9259 H       1  UNL1        0.1437
     19 C          61.9858   86.1671   12.5557 C.3     1  UNL1        0.1799
     20 N          63.1774   85.2928   12.8124 N.am    1  UNL1       -0.2636
     21 C          64.1249   85.6246   13.9270 C.2     1  UNL1        0.2497
     22 O          65.3165   84.7503   14.1836 O.2     1  UNL1       -0.2699
     23 C          63.8808   86.8306   14.7848 C.ar    1  UNL1        0.0567
     24 C          63.3447   86.6654   16.1759 C.ar    1  UNL1        0.0252
     25 C          63.1006   87.8714   17.0338 C.ar    1  UNL1        0.0990
     26 N          63.3928   89.2426   16.5005 N.ar    1  UNL1       -0.2423
     27 C          63.9289   89.4079   15.1094 C.ar    1  UNL1        0.0990
     28 C          64.1730   88.2019   14.2516 C.ar    1  UNL1        0.0252
     29 C          63.4214   84.0868   11.9545 C.3     1  UNL1        0.1209
     30 C          62.9759   82.7324   12.4204 C.ar    1  UNL1       -0.0023
     31 C          63.1838   81.5322   11.5450 C.ar    1  UNL1       -0.0026
     32 C          62.7382   80.1777   12.0109 C.ar    1  UNL1       -0.0003
     33 C          62.0848   80.0235   13.3523 C.ar    1  UNL1       -0.0000
     34 C          61.8769   81.2237   14.2277 C.ar    1  UNL1       -0.0003
     35 C          62.3224   82.5781   13.7618 C.ar    1  UNL1       -0.0026
@<TRIPOS>BOND
     1    10    11    1
     2    11    12   ar
     3    12    13   ar
     4    13    14   ar
     5    14     5    1
     6     5     6   ar
     7     6     7   ar
     8     7     8   ar
     9     8     1    1
    10     1     2   am
    11     2     3    2
    12     2    19    1
    13    19    20    1
    14    20    29    1
    15    29    30    1
    16    30    31   ar
    17    31    32   ar
    18    32    33   ar
    19    33    34   ar
    20    34    35   ar
    21    20    21   am
    22    21    22    2
    23    21    23    1
    24    23    24   ar
    25    24    25   ar
    26    25    26   ar
    27    26    27   ar
    28    27    28   ar
    29     8     9   ar
    30    14    15   ar
    31    15    16   ar
    32    16    11   ar
    33     9     5   ar
    34    35    30   ar
    35    28    23   ar
    36    10    17    1
    37    10    18    1
    38     1     4    1
@<TRIPOS>MOLECULE
*****
 35 38 0 0 0
SMALL
GASTEIGER

@<TRIPOS>ATOM
      1 N          64.4572   88.9166   14.3335 N.am    1  UNL1       -0.2627
      2 C          63.3975   89.9779   14.3054 C.2     1  UNL1        0.2478
      3 O          61.9833   89.6356   14.6701 O.2     1  UNL1       -0.2729
      4 H          65.3853   89.1413   14.0942 H       1  UNL1        0.1568
      5 C          63.5919   85.1431   14.6115 C.ar    1  UNL1        0.0527
      6 C          63.5228   85.5631   16.0499 C.ar    1  UNL1        0.1074
      7 N          63.8385   87.0277   16.1208 N.ar    1  UNL1       -0.2224
      8 C          64.1027   87.5130   14.7263 C.ar    1  UNL1        0.1656
      9 S          63.9504   86.3483   13.7935 S.2     1  UNL1       -0.0513
     10 N          62.6076   79.6136   12.5007 N.pl3   1  UNL1       -0.3426
     11 C          62.8536   80.9960   13.0284 C.ar    1  UNL1        0.1254
     12 C          62.0308   81.5216   14.1671 C.ar    1  UNL1        0.0339
     13 C          62.2769   82.9040   14.6948 C.ar    1  UNL1        0.0049
     14 C          63.3458   83.7607   14.0838 C.ar    1  UNL1        0.0269
     15 C          64.1687   83.2351   12.9452 C.ar    1  UNL1        0.1008
     16 N          63.9226   81.8527   12.4175 N.ar    1  UNL1       -0.2296
     17 H          61.9060   79.0513   12.9017 H       1  UNL1        0.1437
     18 H          63.1476   79.2686   11.7534 H       1  UNL1        0.1437
     19 C          63.7519   91.3814   13.9127 C.3     1  UNL1        0.1799
     20 N          64.5196   91.6354   12.6492 N.am    1  UNL1       -0.2636
     21 C          63.9855   91.1456   11.3358 C.2     1  UNL1        0.2497
     22 O          64.7531   91.3996   10.0724 O.2     1  UNL1       -0.2699
     23 C          62.6839   90.4018   11.2859 C.ar    1  UNL1        0.0567
     24 C          61.3876   91.1562   11.3095 C.ar    1  UNL1        0.0252
     25 C          60.0860   90.4123   11.2596 C.ar    1  UNL1        0.0990
     26 N          60.0807   88.9141   11.1860 N.ar    1  UNL1       -0.2423
     27 C          61.3769   88.1598   11.1624 C.ar    1  UNL1        0.0990
     28 C          62.6786   88.9036   11.2123 C.ar    1  UNL1        0.0252
     29 C          65.8212   92.3793   12.6991 C.3     1  UNL1        0.1209
     30 C          66.3471   93.0540   11.4670 C.ar    1  UNL1       -0.0023
     31 C          67.4178   92.3941   10.6496 C.ar    1  UNL1       -0.0026
     32 C          67.9438   93.0688    9.4175 C.ar    1  UNL1       -0.0003
     33 C          67.3991   94.4036    9.0028 C.ar    1  UNL1       -0.0000
     34 C          66.3284   95.0635    9.8203 C.ar    1  UNL1       -0.0003
     35 C          65.8025   94.3887   11.0524 C.ar    1  UNL1       -0.0026
@<TRIPOS>BOND
     1    10    11    1
     2    11    12   ar
     3    12    13   ar
     4    13    14   ar
     5    14     5    1
     6     5     6   ar
     7     6     7   ar
     8     7     8   ar
     9     8     1    1
    10     1     2   am
    11     2     3    2
    12     2    19    1
    13    19    20    1
    14    20    29    1
    15    29    30    1
    16    30    31   ar
    17    31    32   ar
    18    32    33   ar
    19    33    34   ar
    20    34    35   ar
    21    20    21   am
    22    21    22    2
    23    21    23    1
    24    23    24   ar
    25    24    25   ar
    26    25    26   ar
    27    26    27   ar
    28    27    28   ar
    29     8     9   ar
    30    14    15   ar
    31    15    16   ar
    32    16    11   ar
    33     9     5   ar
    34    35    30   ar
    35    28    23   ar
    36    10    17    1
    37    10    18    1
    38     1     4    1
@<TRIPOS>MOLECULE
*****
 35 38 0 0 0
SMALL
GASTEIGER

@<TRIPOS>ATOM
      1 N          61.0992   88.1005   11.0669 N.am    1  UNL1       -0.2627
      2 C          62.4493   88.7152   11.2892 C.2     1  UNL1        0.2478
      3 O          63.1292   89.4548   10.1753 O.2     1  UNL1       -0.2729
      4 H          60.6530   87.6151   11.7980 H       1  UNL1        0.1568
      5 C          59.6866   89.1049    7.5940 C.ar    1  UNL1        0.0527
      6 C          59.1089   87.7301    7.7554 C.ar    1  UNL1        0.1074
      7 N          59.5677   87.1865    9.0760 N.ar    1  UNL1       -0.2224
      8 C          60.4290   88.2253    9.7308 C.ar    1  UNL1        0.1656
      9 S          60.5025   89.4110    8.8149 S.2     1  UNL1       -0.0513
     10 N          58.8763   92.7414    2.8909 N.pl3   1  UNL1       -0.3426
     11 C          59.0789   91.8323    4.0666 C.ar    1  UNL1        0.1254
     12 C          60.4644   91.4155    4.4625 C.ar    1  UNL1        0.0339
     13 C          60.6669   90.5064    5.6383 C.ar    1  UNL1        0.0049
     14 C          59.4840   90.0140    6.4182 C.ar    1  UNL1        0.0269
     15 C          58.0986   90.4308    6.0223 C.ar    1  UNL1        0.1008
     16 N          57.8960   91.3399    4.8465 N.ar    1  UNL1       -0.2296
     17 H          59.6527   93.0645    2.3790 H       1  UNL1        0.1437
     18 H          57.9670   93.0149    2.6310 H       1  UNL1        0.1437
     19 C          63.1194   88.5904   12.6253 C.3     1  UNL1        0.1799
     20 N          63.3583   89.8125   13.4616 N.am    1  UNL1       -0.2636
     21 C          63.5938   89.6775   14.9369 C.2     1  UNL1        0.2497
     22 O          63.8327   90.8996   15.7732 O.2     1  UNL1       -0.2699
     23 C          63.5902   88.3204   15.5759 C.ar    1  UNL1        0.0567
     24 C          64.2999   87.1773   14.9127 C.ar    1  UNL1        0.0252
     25 C          64.2964   85.8203   15.5516 C.ar    1  UNL1        0.0990
     26 N          63.5832   85.6062   16.8538 N.ar    1  UNL1       -0.2423
     27 C          62.8735   86.7492   17.5169 C.ar    1  UNL1        0.0990
     28 C          62.8770   88.1063   16.8780 C.ar    1  UNL1        0.0252
     29 C          63.3619   91.1696   12.8226 C.3     1  UNL1        0.1209
     30 C          64.6442   91.7525   12.3071 C.ar    1  UNL1       -0.0023
     31 C          64.7231   92.2638   10.8991 C.ar    1  UNL1       -0.0026
     32 C          66.0054   92.8467   10.3835 C.ar    1  UNL1       -0.0003
     33 C          67.2090   92.9183   11.2759 C.ar    1  UNL1       -0.0000
     34 C          67.1302   92.4069   12.6838 C.ar    1  UNL1       -0.0003
     35 C          65.8478   91.8240   13.1994 C.ar    1  UNL1       -0.0026
@<TRIPOS>BOND
     1    10    11    1
     2    11    12   ar
     3    12    13   ar
     4    13    14   ar
     5    14     5    1
     6     5     6   ar
     7     6     7   ar
     8     7     8   ar
     9     8     1    1
    10     1     2   am
    11     2     3    2
    12     2    19    1
    13    19    20    1
    14    20    29    1
    15    29    30    1
    16    30    31   ar
    17    31    32   ar
    18    32    33   ar
    19    33    34   ar
    20    34    35   ar
    21    20    21   am
    22    21    22    2
    23    21    23    1
    24    23    24   ar
    25    24    25   ar
    26    25    26   ar
    27    26    27   ar
    28    27    28   ar
    29     8     9   ar
    30    14    15   ar
    31    15    16   ar
    32    16    11   ar
    33     9     5   ar
    34    35    30   ar
    35    28    23   ar
    36    10    17    1
    37    10    18    1
    38     1     4    1
@<TRIPOS>MOLECULE
*****
 35 38 0 0 0
SMALL
GASTEIGER

@<TRIPOS>ATOM
      1 N          63.1409   87.2394   12.7000 N.am    1  UNL1       -0.2627
      2 C          63.6952   88.2552   13.6545 C.2     1  UNL1        0.2478
      3 O          64.5284   87.8124   14.8205 O.2     1  UNL1       -0.2729
      4 H          62.5941   87.5301   11.9347 H       1  UNL1        0.1568
      5 C          63.4695   83.3730   12.6110 C.ar    1  UNL1        0.0527
      6 C          64.2277   83.6996   13.8634 C.ar    1  UNL1        0.1074
      7 N          64.1969   85.1877   14.0492 N.ar    1  UNL1       -0.2224
      8 C          63.4197   85.7809   12.9116 C.ar    1  UNL1        0.1656
      9 S          62.9701   84.6593   12.0228 S.2     1  UNL1       -0.0513
     10 N          62.5891   77.8850   10.3512 N.pl3   1  UNL1       -0.3426
     11 C          62.8092   79.2570   10.9162 C.ar    1  UNL1        0.1254
     12 C          63.2180   80.3830   10.0135 C.ar    1  UNL1        0.0339
     13 C          63.4381   81.7550   10.5785 C.ar    1  UNL1        0.0049
     14 C          63.2494   82.0010   12.0461 C.ar    1  UNL1        0.0269
     15 C          62.8406   80.8749   12.9487 C.ar    1  UNL1        0.1008
     16 N          62.6205   79.5029   12.3837 N.ar    1  UNL1       -0.2296
     17 H          62.7129   77.7236    9.3880 H       1  UNL1        0.1437
     18 H          62.3207   77.1459   10.9437 H       1  UNL1        0.1437
     19 C          63.4164   89.7137   13.4428 C.3     1  UNL1        0.1799
     20 N          62.7211   90.1709   12.1948 N.am    1  UNL1       -0.2636
     21 C          63.3784   91.1751   11.2949 C.2     1  UNL1        0.2497
     22 O          62.6831   91.6323   10.0469 O.2     1  UNL1       -0.2699
     23 C          64.7311   91.7219   11.6431 C.ar    1  UNL1        0.0567
     24 C          65.2282   91.6496   13.0564 C.ar    1  UNL1        0.0252
     25 C          66.5809   92.1965   13.4046 C.ar    1  UNL1        0.0990
     26 N          67.4364   92.8157   12.3393 N.ar    1  UNL1       -0.2423
     27 C          66.9392   92.8881   10.9260 C.ar    1  UNL1        0.0990
     28 C          65.5866   92.3412   10.5778 C.ar    1  UNL1        0.0252
     29 C          61.3684   89.6240   11.8467 C.3     1  UNL1        0.1209
     30 C          61.2283   88.6135   10.7470 C.ar    1  UNL1       -0.0023
     31 C          59.8649   88.1931   10.2840 C.ar    1  UNL1       -0.0026
     32 C          59.7247   87.1826    9.1843 C.ar    1  UNL1       -0.0003
     33 C          60.9480   86.5924    8.5477 C.ar    1  UNL1       -0.0000
     34 C          62.3114   87.0128    9.0108 C.ar    1  UNL1       -0.0003
     35 C          62.4516   88.0233   10.1104 C.ar    1  UNL1       -0.0026
@<TRIPOS>BOND
     1    10    11    1
     2    11    12   ar
     3    12    13   ar
     4    13    14   ar
     5    14     5    1
     6     5     6   ar
     7     6     7   ar
     8     7     8   ar
     9     8     1    1
    10     1     2   am
    11     2     3    2
    12     2    19    1
    13    19    20    1
    14    20    29    1
    15    29    30    1
    16    30    31   ar
    17    31    32   ar
    18    32    33   ar
    19    33    34   ar
    20    34    35   ar
    21    20    21   am
    22    21    22    2
    23    21    23    1
    24    23    24   ar
    25    24    25   ar
    26    25    26   ar
    27    26    27   ar
    28    27    28   ar
    29     8     9   ar
    30    14    15   ar
    31    15    16   ar
    32    16    11   ar
    33     9     5   ar
    34    35    30   ar
    35    28    23   ar
    36    10    17    1
    37    10    18    1
    38     1     4    1
