@<TRIPOS>MOLECULE
*****
 21 23 0 0 0
SMALL
GASTEIGER

@<TRIPOS>ATOM
      1 C          63.3600   82.5153   12.0060 C.ar    1  UNL1        0.0428
      2 C          63.1604   81.3071   11.1398 C.ar    1  UNL1        0.0077
      3 C          62.6228   80.0389   11.7337 C.ar    1  UNL1        0.0006
      4 C          62.2847   79.9790   13.1938 C.ar    1  UNL1        0.0013
      5 C          62.4843   81.1871   14.0601 C.ar    1  UNL1        0.0150
      6 C          63.0219   82.4554   13.4662 C.ar    1  UNL1        0.0540
      7 N          63.2214   83.6635   14.3325 N.pl3   1  UNL1       -0.3043
      8 C          64.4532   84.5047   14.1742 C.3     1  UNL1        0.1079
      9 C          64.6528   85.7129   15.0405 C.3     1  UNL1        0.0903
     10 N          63.6205   86.0799   16.0651 N.3     1  UNL1       -0.2946
     11 C          62.3887   85.2387   16.2233 C.3     1  UNL1        0.0903
     12 C          62.1892   84.0305   15.3570 C.3     1  UNL1        0.1079
     13 H          63.3056   87.0238   15.8408 H       1  UNL1        0.1233
     14 S          63.8976   83.7835   11.4121 S.3     1  UNL1       -0.0857
     15 C          60.2227   87.5245    8.4967 C.3     1  UNL1        0.0310
     16 C          61.1414   86.5892    9.2255 C.ar    1  UNL1       -0.0218
     17 C          62.1753   85.8109    8.4671 C.ar    1  UNL1       -0.0037
     18 C          63.0940   84.8756    9.1960 C.ar    1  UNL1        0.0062
     19 C          62.9789   84.7187   10.6833 C.ar    1  UNL1        0.0295
     20 C          61.9450   85.4971   11.4417 C.ar    1  UNL1        0.0062
     21 C          61.0263   86.4324   10.7128 C.ar    1  UNL1       -0.0037
@<TRIPOS>BOND
     1    15    16    1
     2    16    17   ar
     3    17    18   ar
     4    18    19   ar
     5    19    14    1
     6    14     1    1
     7     1     2   ar
     8     2     3   ar
     9     3     4   ar
    10     4     5   ar
    11     5     6   ar
    12     6     7    1
    13     7     8    1
    14     8     9    1
    15     9    10    1
    16    10    11    1
    17    11    12    1
    18    19    20   ar
    19    20    21   ar
    20    21    16   ar
    21     6     1   ar
    22    12     7    1
    23    10    13    1
@<TRIPOS>MOLECULE
*****
 21 23 0 0 0
SMALL
GASTEIGER

@<TRIPOS>ATOM
      1 C          63.3865   82.5170   11.9946 C.ar    1  UNL1        0.0428
      2 C          63.1784   81.3046   11.1361 C.ar    1  UNL1        0.0077
      3 C          62.6427   80.0406   11.7405 C.ar    1  UNL1        0.0006
      4 C          62.3150   79.9889   13.2033 C.ar    1  UNL1        0.0013
      5 C          62.5230   81.2012   14.0618 C.ar    1  UNL1        0.0150
      6 C          63.0587   82.4653   13.4574 C.ar    1  UNL1        0.0540
      7 N          63.2667   83.6776   14.3159 N.pl3   1  UNL1       -0.3043
      8 C          62.2378   84.0575   15.3392 C.3     1  UNL1        0.1079
      9 C          62.4458   85.2698   16.1977 C.3     1  UNL1        0.0903
     10 N          63.6827   86.1023   16.0329 N.3     1  UNL1       -0.2946
     11 C          64.7116   85.7224   15.0096 C.3     1  UNL1        0.0903
     12 C          64.5036   84.5100   14.1511 C.3     1  UNL1        0.1079
     13 H          64.1552   86.1097   16.9368 H       1  UNL1        0.1233
     14 S          63.9222   83.7810   11.3902 S.3     1  UNL1       -0.0857
     15 C          60.2298   87.5236    8.4990 C.3     1  UNL1        0.0310
     16 C          61.1529   86.5879    9.2218 C.ar    1  UNL1       -0.0218
     17 C          61.0592   86.4443   10.7119 C.ar    1  UNL1       -0.0037
     18 C          61.9823   85.5086   11.4347 C.ar    1  UNL1        0.0062
     19 C          62.9991   84.7166   10.6674 C.ar    1  UNL1        0.0295
     20 C          63.0927   84.8603    9.1773 C.ar    1  UNL1        0.0062
     21 C          62.1696   85.7959    8.4545 C.ar    1  UNL1       -0.0037
@<TRIPOS>BOND
     1    15    16    1
     2    16    17   ar
     3    17    18   ar
     4    18    19   ar
     5    19    14    1
     6    14     1    1
     7     1     2   ar
     8     2     3   ar
     9     3     4   ar
    10     4     5   ar
    11     5     6   ar
    12     6     7    1
    13     7     8    1
    14     8     9    1
    15     9    10    1
    16    10    11    1
    17    11    12    1
    18    19    20   ar
    19    20    21   ar
    20    21    16   ar
    21     6     1   ar
    22    12     7    1
    23    10    13    1
@<TRIPOS>MOLECULE
*****
 21 23 0 0 0
SMALL
GASTEIGER

@<TRIPOS>ATOM
      1 C          62.8029   85.0754   11.2305 C.ar    1  UNL1        0.0428
      2 C          62.9802   84.5934    9.8211 C.ar    1  UNL1        0.0077
      3 C          63.8858   83.4328    9.5337 C.ar    1  UNL1        0.0006
      4 C          64.6141   82.7540   10.6557 C.ar    1  UNL1        0.0013
      5 C          64.4369   83.2359   12.0650 C.ar    1  UNL1        0.0150
      6 C          63.5313   84.3967   12.3525 C.ar    1  UNL1        0.0540
      7 N          63.3540   84.8786   13.7618 N.pl3   1  UNL1       -0.3043
      8 C          62.3619   84.2074   14.6648 C.3     1  UNL1        0.1079
      9 C          62.1847   84.6894   16.0741 C.3     1  UNL1        0.0903
     10 N          62.9995   85.8425   16.5806 N.3     1  UNL1       -0.2946
     11 C          63.9916   86.5136   15.6776 C.3     1  UNL1        0.0903
     12 C          64.1688   86.0316   14.2682 C.3     1  UNL1        0.1079
     13 H          63.5202   85.5025   17.3891 H       1  UNL1        0.1233
     14 S          61.8973   86.2361   11.5179 S.3     1  UNL1       -0.0857
     15 C          59.3462   89.2425    6.9953 C.3     1  UNL1        0.0310
     16 C          59.9840   88.4909    8.1260 C.ar    1  UNL1       -0.0218
     17 C          59.8705   86.9967    8.1917 C.ar    1  UNL1       -0.0037
     18 C          60.5082   86.2451    9.3224 C.ar    1  UNL1        0.0062
     19 C          61.2595   86.9877   10.3873 C.ar    1  UNL1        0.0295
     20 C          61.3731   88.4819   10.3215 C.ar    1  UNL1        0.0062
     21 C          60.7353   89.2335    9.1909 C.ar    1  UNL1       -0.0037
@<TRIPOS>BOND
     1    15    16    1
     2    16    17   ar
     3    17    18   ar
     4    18    19   ar
     5    19    14    1
     6    14     1    1
     7     1     2   ar
     8     2     3   ar
     9     3     4   ar
    10     4     5   ar
    11     5     6   ar
    12     6     7    1
    13     7     8    1
    14     8     9    1
    15     9    10    1
    16    10    11    1
    17    11    12    1
    18    19    20   ar
    19    20    21   ar
    20    21    16   ar
    21     6     1   ar
    22    12     7    1
    23    10    13    1
@<TRIPOS>MOLECULE
*****
 21 23 0 0 0
SMALL
GASTEIGER

@<TRIPOS>ATOM
      1 C          63.1959   90.6748   11.9733 C.ar    1  UNL1        0.0428
      2 C          63.4775   91.5656   10.7997 C.ar    1  UNL1        0.0077
      3 C          64.7560   92.3479   10.7417 C.ar    1  UNL1        0.0006
      4 C          65.7530   92.2394   11.8572 C.ar    1  UNL1        0.0013
      5 C          65.4714   91.3487   13.0307 C.ar    1  UNL1        0.0150
      6 C          64.1929   90.5663   13.0888 C.ar    1  UNL1        0.0540
      7 N          63.9113   89.6756   14.2623 N.pl3   1  UNL1       -0.3043
      8 C          64.2556   88.2171   14.1966 C.3     1  UNL1        0.1079
      9 C          63.9741   87.3264   15.3701 C.3     1  UNL1        0.0903
     10 N          63.3482   87.8941   16.6095 N.3     1  UNL1       -0.2946
     11 C          63.0038   89.3525   16.6753 C.3     1  UNL1        0.0903
     12 C          63.2854   90.2433   15.5016 C.3     1  UNL1        0.1079
     13 H          63.9942   87.7091   17.3769 H       1  UNL1        0.1233
     14 S          61.9174   89.8925   12.0313 S.3     1  UNL1       -0.0857
     15 C          60.5954   85.9780    7.6806 C.3     1  UNL1        0.0310
     16 C          60.9259   86.9566    8.7683 C.ar    1  UNL1       -0.0218
     17 C          60.2423   88.2911    8.8097 C.ar    1  UNL1       -0.0037
     18 C          60.5728   89.2697    9.8973 C.ar    1  UNL1        0.0062
     19 C          61.5869   88.9139   10.9437 C.ar    1  UNL1        0.0295
     20 C          62.2706   87.5794   10.9023 C.ar    1  UNL1        0.0062
     21 C          61.9401   86.6008    9.8146 C.ar    1  UNL1       -0.0037
@<TRIPOS>BOND
     1    15    16    1
     2    16    17   ar
     3    17    18   ar
     4    18    19   ar
     5    19    14    1
     6    14     1    1
     7     1     2   ar
     8     2     3   ar
     9     3     4   ar
    10     4     5   ar
    11     5     6   ar
    12     6     7    1
    13     7     8    1
    14     8     9    1
    15     9    10    1
    16    10    11    1
    17    11    12    1
    18    19    20   ar
    19    20    21   ar
    20    21    16   ar
    21     6     1   ar
    22    12     7    1
    23    10    13    1
@<TRIPOS>MOLECULE
*****
 21 23 0 0 0
SMALL
GASTEIGER

@<TRIPOS>ATOM
      1 C          64.2550   91.1623   13.3529 C.ar    1  UNL1        0.0428
      2 C          63.0662   90.7390   12.5420 C.ar    1  UNL1        0.0077
      3 C          63.0070   91.0543   11.0767 C.ar    1  UNL1        0.0006
      4 C          64.1367   91.7929   10.4223 C.ar    1  UNL1        0.0013
      5 C          65.3255   92.2163   11.2332 C.ar    1  UNL1        0.0150
      6 C          65.3847   91.9010   12.6985 C.ar    1  UNL1        0.0540
      7 N          66.5735   92.3243   13.5094 N.pl3   1  UNL1       -0.3043
      8 C          67.9145   91.7020   13.2556 C.3     1  UNL1        0.1079
      9 C          69.1033   92.1254   14.0664 C.3     1  UNL1        0.0903
     10 N          68.9511   93.1710   15.1311 N.3     1  UNL1       -0.2946
     11 C          67.6100   93.7933   15.3849 C.3     1  UNL1        0.0903
     12 C          66.4212   93.3699   14.5740 C.3     1  UNL1        0.1079
     13 H          69.5875   93.9310   14.8906 H       1  UNL1        0.1233
     14 S          64.3141   90.8470   14.8182 S.3     1  UNL1       -0.0857
     15 C          63.0902   85.2981   16.7447 C.3     1  UNL1        0.0310
     16 C          63.3962   86.6853   16.2631 C.ar    1  UNL1       -0.0218
     17 C          64.1812   86.8848   15.0006 C.ar    1  UNL1       -0.0037
     18 C          64.4872   88.2721   14.5190 C.ar    1  UNL1        0.0062
     19 C          64.0081   89.4598   15.2998 C.ar    1  UNL1        0.0295
     20 C          63.2231   89.2603   16.5623 C.ar    1  UNL1        0.0062
     21 C          62.9171   87.8731   17.0439 C.ar    1  UNL1       -0.0037
@<TRIPOS>BOND
     1    15    16    1
     2    16    17   ar
     3    17    18   ar
     4    18    19   ar
     5    19    14    1
     6    14     1    1
     7     1     2   ar
     8     2     3   ar
     9     3     4   ar
    10     4     5   ar
    11     5     6   ar
    12     6     7    1
    13     7     8    1
    14     8     9    1
    15     9    10    1
    16    10    11    1
    17    11    12    1
    18    19    20   ar
    19    20    21   ar
    20    21    16   ar
    21     6     1   ar
    22    12     7    1
    23    10    13    1
@<TRIPOS>MOLECULE
*****
 21 23 0 0 0
SMALL
GASTEIGER

@<TRIPOS>ATOM
      1 C          62.7576   84.9910   11.2807 C.ar    1  UNL1        0.0428
      2 C          62.9331   84.5146    9.8692 C.ar    1  UNL1        0.0077
      3 C          63.8684   83.3804    9.5712 C.ar    1  UNL1        0.0006
      4 C          64.6283   82.7227   10.6847 C.ar    1  UNL1        0.0013
      5 C          64.4529   83.1990   12.0961 C.ar    1  UNL1        0.0150
      6 C          63.5175   84.3332   12.3942 C.ar    1  UNL1        0.0540
      7 N          63.3421   84.8096   13.8056 N.pl3   1  UNL1       -0.3043
      8 C          64.2255   85.8947   14.3462 C.3     1  UNL1        0.1079
      9 C          64.0501   86.3711   15.7577 C.3     1  UNL1        0.0903
     10 N          62.9913   85.7623   16.6286 N.3     1  UNL1       -0.2946
     11 C          62.1079   84.6772   16.0880 C.3     1  UNL1        0.0903
     12 C          62.2834   84.2008   14.6765 C.3     1  UNL1        0.1079
     13 H          62.3778   86.5228   16.9216 H       1  UNL1        0.1233
     14 S          61.8223   86.1251   11.5787 S.3     1  UNL1       -0.0857
     15 C          63.4555   91.7647   10.3425 C.3     1  UNL1        0.0310
     16 C          63.0472   90.3548   10.6516 C.ar    1  UNL1       -0.0218
     17 C          62.2803   89.5570    9.6390 C.ar    1  UNL1       -0.0037
     18 C          61.8719   88.1471    9.9480 C.ar    1  UNL1        0.0062
     19 C          62.2306   87.5350   11.2696 C.ar    1  UNL1        0.0295
     20 C          62.9975   88.3328   12.2822 C.ar    1  UNL1        0.0062
     21 C          63.4058   89.7427   11.9731 C.ar    1  UNL1       -0.0037
@<TRIPOS>BOND
     1    15    16    1
     2    16    17   ar
     3    17    18   ar
     4    18    19   ar
     5    19    14    1
     6    14     1    1
     7     1     2   ar
     8     2     3   ar
     9     3     4   ar
    10     4     5   ar
    11     5     6   ar
    12     6     7    1
    13     7     8    1
    14     8     9    1
    15     9    10    1
    16    10    11    1
    17    11    12    1
    18    19    20   ar
    19    20    21   ar
    20    21    16   ar
    21     6     1   ar
    22    12     7    1
    23    10    13    1
@<TRIPOS>MOLECULE
*****
 21 23 0 0 0
SMALL
GASTEIGER

@<TRIPOS>ATOM
      1 C          62.7595   85.1175   11.2642 C.ar    1  UNL1        0.0428
      2 C          62.9260   84.6637    9.8441 C.ar    1  UNL1        0.0077
      3 C          63.8345   83.5133    9.5260 C.ar    1  UNL1        0.0006
      4 C          64.5766   82.8168   10.6279 C.ar    1  UNL1        0.0013
      5 C          64.4102   83.2706   12.0479 C.ar    1  UNL1        0.0150
      6 C          63.5016   84.4210   12.3660 C.ar    1  UNL1        0.0540
      7 N          63.3352   84.8748   13.7860 N.pl3   1  UNL1       -0.3043
      8 C          62.3343   84.2001   14.6765 C.3     1  UNL1        0.1079
      9 C          62.1679   84.6539   16.0965 C.3     1  UNL1        0.0903
     10 N          63.0023   85.7824   16.6260 N.3     1  UNL1       -0.2946
     11 C          64.0032   86.4570   15.7354 C.3     1  UNL1        0.0903
     12 C          64.1696   86.0032   14.3154 C.3     1  UNL1        0.1079
     13 H          63.5192   85.4164   17.4256 H       1  UNL1        0.1233
     14 S          61.8510   86.2679   11.5822 S.3     1  UNL1       -0.0857
     15 C          63.6176   91.8886   10.4480 C.3     1  UNL1        0.0310
     16 C          63.1760   90.4834   10.7316 C.ar    1  UNL1       -0.0218
     17 C          62.4288   89.7071    9.6881 C.ar    1  UNL1       -0.0037
     18 C          61.9871   88.3019    9.9716 C.ar    1  UNL1        0.0062
     19 C          62.2927   87.6731   11.2987 C.ar    1  UNL1        0.0295
     20 C          63.0399   88.4494   12.3422 C.ar    1  UNL1        0.0062
     21 C          63.4816   89.8546   12.0586 C.ar    1  UNL1       -0.0037
@<TRIPOS>BOND
     1    15    16    1
     2    16    17   ar
     3    17    18   ar
     4    18    19   ar
     5    19    14    1
     6    14     1    1
     7     1     2   ar
     8     2     3   ar
     9     3     4   ar
    10     4     5   ar
    11     5     6   ar
    12     6     7    1
    13     7     8    1
    14     8     9    1
    15     9    10    1
    16    10    11    1
    17    11    12    1
    18    19    20   ar
    19    20    21   ar
    20    21    16   ar
    21     6     1   ar
    22    12     7    1
    23    10    13    1
@<TRIPOS>MOLECULE
*****
 21 23 0 0 0
SMALL
GASTEIGER

@<TRIPOS>ATOM
      1 C          63.0104   86.2283   12.5021 C.ar    1  UNL1        0.0428
      2 C          63.1970   87.7148   12.4277 C.ar    1  UNL1        0.0077
      3 C          63.9348   88.4336   13.5181 C.ar    1  UNL1        0.0006
      4 C          64.4859   87.6659   14.6830 C.ar    1  UNL1        0.0013
      5 C          64.2993   86.1794   14.7574 C.ar    1  UNL1        0.0150
      6 C          63.5615   85.4606   13.6670 C.ar    1  UNL1        0.0540
      7 N          63.3748   83.9742   13.7415 N.pl3   1  UNL1       -0.3043
      8 C          62.2242   83.4005   14.5142 C.3     1  UNL1        0.1079
      9 C          62.0376   81.9141   14.5886 C.3     1  UNL1        0.0903
     10 N          63.0016   81.0012   13.8904 N.3     1  UNL1       -0.2946
     11 C          64.1522   81.5748   13.1177 C.3     1  UNL1        0.0903
     12 C          64.3388   83.0614   13.0432 C.3     1  UNL1        0.1079
     13 H          62.4556   80.4426   13.2344 H       1  UNL1        0.1233
     14 S          62.2726   85.5095   11.4117 S.3     1  UNL1       -0.0857
     15 C          59.1879   88.6269    7.3170 C.3     1  UNL1        0.0310
     16 C          59.9591   87.8475    8.3407 C.ar    1  UNL1       -0.0218
     17 C          59.8853   88.2327    9.7885 C.ar    1  UNL1       -0.0037
     18 C          60.6564   87.4533   10.8122 C.ar    1  UNL1        0.0062
     19 C          61.5014   86.2889   10.3880 C.ar    1  UNL1        0.0295
     20 C          61.5752   85.9037    8.9402 C.ar    1  UNL1        0.0062
     21 C          60.8040   86.6830    7.9166 C.ar    1  UNL1       -0.0037
@<TRIPOS>BOND
     1    15    16    1
     2    16    17   ar
     3    17    18   ar
     4    18    19   ar
     5    19    14    1
     6    14     1    1
     7     1     2   ar
     8     2     3   ar
     9     3     4   ar
    10     4     5   ar
    11     5     6   ar
    12     6     7    1
    13     7     8    1
    14     8     9    1
    15     9    10    1
    16    10    11    1
    17    11    12    1
    18    19    20   ar
    19    20    21   ar
    20    21    16   ar
    21     6     1   ar
    22    12     7    1
    23    10    13    1
@<TRIPOS>MOLECULE
*****
 21 23 0 0 0
SMALL
GASTEIGER

@<TRIPOS>ATOM
      1 C          61.6269   86.7307    8.9705 C.ar    1  UNL1        0.0428
      2 C          60.7741   85.8800    8.0766 C.ar    1  UNL1        0.0077
      3 C          59.4568   86.3988    7.5811 C.ar    1  UNL1        0.0006
      4 C          58.9923   87.7683    7.9793 C.ar    1  UNL1        0.0013
      5 C          59.8451   88.6191    8.8731 C.ar    1  UNL1        0.0150
      6 C          61.1625   88.1003    9.3688 C.ar    1  UNL1        0.0540
      7 N          62.0152   88.9510   10.2626 N.pl3   1  UNL1       -0.3043
      8 C          62.4912   90.2927    9.7900 C.3     1  UNL1        0.1079
      9 C          63.3440   91.1435   10.6839 C.3     1  UNL1        0.0903
     10 N          63.7208   90.6526   12.0503 N.3     1  UNL1       -0.2946
     11 C          63.2449   89.3108   12.5228 C.3     1  UNL1        0.0903
     12 C          62.3920   88.4601   11.6289 C.3     1  UNL1        0.1079
     13 H          63.3712   91.3406   12.7172 H       1  UNL1        0.1233
     14 S          62.9442   86.2120    9.4661 S.3     1  UNL1       -0.0857
     15 C          63.1748   81.0723   12.5532 C.3     1  UNL1        0.0310
     16 C          63.1171   82.3572   11.7814 C.ar    1  UNL1       -0.0218
     17 C          62.4474   83.5602   12.3766 C.ar    1  UNL1       -0.0037
     18 C          62.3898   84.8451   11.6048 C.ar    1  UNL1        0.0062
     19 C          63.0019   84.9270   10.2379 C.ar    1  UNL1        0.0295
     20 C          63.6716   83.7240    9.6427 C.ar    1  UNL1        0.0062
     21 C          63.7292   82.4391   10.4145 C.ar    1  UNL1       -0.0037
@<TRIPOS>BOND
     1    15    16    1
     2    16    17   ar
     3    17    18   ar
     4    18    19   ar
     5    19    14    1
     6    14     1    1
     7     1     2   ar
     8     2     3   ar
     9     3     4   ar
    10     4     5   ar
    11     5     6   ar
    12     6     7    1
    13     7     8    1
    14     8     9    1
    15     9    10    1
    16    10    11    1
    17    11    12    1
    18    19    20   ar
    19    20    21   ar
    20    21    16   ar
    21     6     1   ar
    22    12     7    1
    23    10    13    1
