@<TRIPOS>MOLECULE
*****
 35 36 0 0 0
SMALL
GASTEIGER

@<TRIPOS>ATOM
      1 C          64.0850   90.0503   14.7031 C.3     1  UNL1        0.0000
      2 N          65.0621   91.5091   12.7881 N.am    1  UNL1        0.0000
      3 C          64.9595   91.1809   14.2482 C.2     1  UNL1        0.0000
      4 O          65.7315   91.9832   15.2533 O.2     1  UNL1        0.0000
      5 H          64.5554   90.9824   12.1285 H       1  UNL1        0.0000
      6 C          65.9367   92.6396   12.3332 C.3     1  UNL1        0.0000
      7 B          66.8835   93.2904   13.2976 B       1  UNL1        0.0000
      8 O          68.2045   92.6477   13.6008 O.3     1  UNL1        0.0000
      9 O          66.5092   94.5837   13.9588 O.3     1  UNL1        0.0000
     10 H          68.2877   91.8249   13.0940 H       1  UNL1        0.0000
     11 H          65.6303   94.8596   13.6551 H       1  UNL1        0.0000
     12 C          65.8645   93.1194   10.9138 C.3     1  UNL1        0.0000
     13 C          67.4425   94.5113    9.3899 C.3     1  UNL1        0.0000
     14 C          67.1160   93.2278   10.0942 C.3     1  UNL1        0.0000
     15 C          68.0411   92.0526    9.9787 C.3     1  UNL1        0.0000
     16 N          63.8325   88.8846   13.7936 N.am    1  UNL1        0.0000
     17 C          62.9494   89.0481   12.5923 C.2     1  UNL1        0.0000
     18 O          62.3188   90.3774   12.3004 O.2     1  UNL1        0.0000
     19 H          64.2464   88.0121   13.9852 H       1  UNL1        0.0000
     20 C          62.6969   87.8823   11.6827 C.ar    1  UNL1        0.0000
     21 C          62.3017   88.1169   10.2549 C.ar    1  UNL1        0.0000
     22 C          62.0492   86.9511    9.3454 C.ar    1  UNL1        0.0000
     23 C          62.1918   85.5508    9.8637 C.ar    1  UNL1        0.0000
     24 C          62.5870   85.3162   11.2916 C.ar    1  UNL1        0.0000
     25 N          62.8395   86.4820   12.2011 N.ar    1  UNL1        0.0000
     26 C          62.7296   83.9159   11.8100 C.ar    1  UNL1        0.0000
     27 C          62.9973   82.7876   10.8586 C.ar    1  UNL1        0.0000
     28 C          63.1400   81.3872   11.3770 C.ar    1  UNL1        0.0000
     29 C          63.0150   81.1152   12.8468 C.ar    1  UNL1        0.0000
     30 C          62.7473   82.2436   13.7982 C.ar    1  UNL1        0.0000
     31 C          62.6046   83.6439   13.2798 C.ar    1  UNL1        0.0000
     32 C          63.4629   90.0855   16.0677 C.3     1  UNL1        0.0000
     33 C          63.0401   88.8090   16.7323 C.3     1  UNL1        0.0000
     34 O          63.2636   91.3972   16.7675 O.3     1  UNL1        0.0000
     35 H          63.5885   92.1169   16.2041 H       1  UNL1        0.0000
@<TRIPOS>BOND
     1    13    14    1
     2    14    15    1
     3    14    12    1
     4     6    12    1
     5     6     2    1
     6     2     3   am
     7     3     4    2
     8     3     1    1
     9     1    16    1
    10    16    17   am
    11    17    18    2
    12    17    20    1
    13    20    21   ar
    14    21    22   ar
    15    22    23   ar
    16    23    24   ar
    17    24    26    1
    18    26    27   ar
    19    27    28   ar
    20    28    29   ar
    21    29    30   ar
    22    30    31   ar
    23    24    25   ar
    24     1    32    1
    25    32    33    1
    26    32    34    1
    27     6     7    1
    28     7     8    1
    29     7     9    1
    30    25    20   ar
    31    31    26   ar
    32     2     5    1
    33    16    19    1
    34    34    35    1
    35     8    10    1
    36     9    11    1
@<TRIPOS>MOLECULE
*****
 35 36 0 0 0
SMALL
GASTEIGER

@<TRIPOS>ATOM
      1 C          61.1136   89.4006   11.5788 C.3     1  UNL1        0.0000
      2 N          61.4999   86.8334   11.4792 N.am    1  UNL1        0.0000
      3 C          61.4625   88.1688   10.7972 C.2     1  UNL1        0.0000
      4 O          61.7741   88.2726    9.3337 O.2     1  UNL1        0.0000
      5 H          61.2953   86.7653   12.4398 H       1  UNL1        0.0000
      6 C          61.8488   85.6016   10.6976 C.3     1  UNL1        0.0000
      7 B          61.9097   85.6559    9.1998 B       1  UNL1        0.0000
      8 O          63.2360   85.6056    8.5009 O.3     1  UNL1        0.0000
      9 O          60.6445   85.7606    8.4010 O.3     1  UNL1        0.0000
     10 H          63.9458   85.5387    9.1586 H       1  UNL1        0.0000
     11 H          59.8835   85.7818    9.0021 H       1  UNL1        0.0000
     12 C          62.1368   84.3154   11.4138 C.3     1  UNL1        0.0000
     13 C          64.2980   83.1655   10.5438 C.3     1  UNL1        0.0000
     14 C          63.5555   83.8806   11.6334 C.3     1  UNL1        0.0000
     15 C          64.2317   84.1610   12.9426 C.3     1  UNL1        0.0000
     16 N          62.1743   90.4123   11.8973 N.am    1  UNL1        0.0000
     17 C          63.3548   90.0224   12.7365 C.2     1  UNL1        0.0000
     18 O          63.4747   88.6208   13.2571 O.2     1  UNL1        0.0000
     19 H          62.0956   91.3322   11.5556 H       1  UNL1        0.0000
     20 C          64.4155   91.0341   13.0550 C.ar    1  UNL1        0.0000
     21 C          64.9988   91.1000   14.4353 C.ar    1  UNL1        0.0000
     22 C          66.0595   92.1117   14.7538 C.ar    1  UNL1        0.0000
     23 C          66.5369   93.0575   13.6919 C.ar    1  UNL1        0.0000
     24 C          65.9535   92.9916   12.3116 C.ar    1  UNL1        0.0000
     25 N          64.8929   91.9799   11.9931 N.ar    1  UNL1        0.0000
     26 C          66.4309   93.9374   11.2497 C.ar    1  UNL1        0.0000
     27 C          67.1507   93.4100   10.0441 C.ar    1  UNL1        0.0000
     28 C          67.6281   94.3559    8.9822 C.ar    1  UNL1        0.0000
     29 C          67.3855   95.8291    9.1260 C.ar    1  UNL1        0.0000
     30 C          66.6657   96.3565   10.3317 C.ar    1  UNL1        0.0000
     31 C          66.1884   95.4107   11.3935 C.ar    1  UNL1        0.0000
     32 C          59.7039   89.6208   12.0420 C.3     1  UNL1        0.0000
     33 C          58.9903   90.8934   11.6941 C.3     1  UNL1        0.0000
     34 O          59.0079   88.5682   12.8530 O.3     1  UNL1        0.0000
     35 H          59.6053   87.8159   12.9872 H       1  UNL1        0.0000
@<TRIPOS>BOND
     1    13    14    1
     2    14    15    1
     3    14    12    1
     4     6    12    1
     5     6     2    1
     6     2     3   am
     7     3     4    2
     8     3     1    1
     9     1    16    1
    10    16    17   am
    11    17    18    2
    12    17    20    1
    13    20    21   ar
    14    21    22   ar
    15    22    23   ar
    16    23    24   ar
    17    24    26    1
    18    26    27   ar
    19    27    28   ar
    20    28    29   ar
    21    29    30   ar
    22    30    31   ar
    23    24    25   ar
    24     1    32    1
    25    32    33    1
    26    32    34    1
    27     6     7    1
    28     7     8    1
    29     7     9    1
    30    25    20   ar
    31    31    26   ar
    32     2     5    1
    33    16    19    1
    34    34    35    1
    35     8    10    1
    36     9    11    1
@<TRIPOS>MOLECULE
*****
 35 36 0 0 0
SMALL
GASTEIGER

@<TRIPOS>ATOM
      1 C          61.6884   88.8982   10.9205 C.3     1  UNL1        0.0000
      2 N          62.7962   86.8677   12.1035 N.am    1  UNL1        0.0000
      3 C          61.7752   87.4189   11.1529 C.2     1  UNL1        0.0000
      4 O          60.8411   86.4909   10.4346 O.2     1  UNL1        0.0000
      5 H          63.4094   87.4768   12.5750 H       1  UNL1        0.0000
      6 C          62.8830   85.3884   12.3359 C.3     1  UNL1        0.0000
      7 B          63.1739   84.8607   13.7096 B       1  UNL1        0.0000
      8 O          62.0618   84.7044   14.7040 O.3     1  UNL1        0.0000
      9 O          64.5768   84.4894   14.0889 O.3     1  UNL1        0.0000
     10 H          61.2258   84.9872   14.3013 H       1  UNL1        0.0000
     11 H          65.1683   84.6501   13.3371 H       1  UNL1        0.0000
     12 C          62.6789   84.4366   11.1946 C.3     1  UNL1        0.0000
     13 C          64.3391   82.5911   10.4278 C.3     1  UNL1        0.0000
     14 C          63.1926   83.0305   11.2895 C.3     1  UNL1        0.0000
     15 C          62.5599   82.0639   12.2462 C.3     1  UNL1        0.0000
     16 N          62.8748   89.7724   11.2007 N.am    1  UNL1        0.0000
     17 C          63.1929   90.1760   12.6099 C.2     1  UNL1        0.0000
     18 O          62.3246   89.7055   13.7389 O.2     1  UNL1        0.0000
     19 H          63.4447   90.0811   10.4597 H       1  UNL1        0.0000
     20 C          64.3792   91.0501   12.8901 C.ar    1  UNL1        0.0000
     21 C          65.1153   90.9212   14.1906 C.ar    1  UNL1        0.0000
     22 C          66.3017   91.7953   14.4708 C.ar    1  UNL1        0.0000
     23 C          66.7519   92.7983   13.4504 C.ar    1  UNL1        0.0000
     24 C          66.0158   92.9272   12.1499 C.ar    1  UNL1        0.0000
     25 N          64.8295   92.0531   11.8697 N.ar    1  UNL1        0.0000
     26 C          66.4661   93.9303   11.1294 C.ar    1  UNL1        0.0000
     27 C          66.2077   95.3914   11.3492 C.ar    1  UNL1        0.0000
     28 C          66.6580   96.3944   10.3287 C.ar    1  UNL1        0.0000
     29 C          67.3665   95.9363    9.0885 C.ar    1  UNL1        0.0000
     30 C          67.6248   94.4751    8.8688 C.ar    1  UNL1        0.0000
     31 C          67.1746   93.4721    9.8892 C.ar    1  UNL1        0.0000
     32 C          60.4152   89.5035   10.4079 C.3     1  UNL1        0.0000
     33 C          59.6509   90.4745   11.2582 C.3     1  UNL1        0.0000
     34 O          59.9064   89.1378    9.0451 O.3     1  UNL1        0.0000
     35 H          60.5139   88.5041    8.6325 H       1  UNL1        0.0000
@<TRIPOS>BOND
     1    13    14    1
     2    14    15    1
     3    14    12    1
     4     6    12    1
     5     6     2    1
     6     2     3   am
     7     3     4    2
     8     3     1    1
     9     1    16    1
    10    16    17   am
    11    17    18    2
    12    17    20    1
    13    20    21   ar
    14    21    22   ar
    15    22    23   ar
    16    23    24   ar
    17    24    26    1
    18    26    27   ar
    19    27    28   ar
    20    28    29   ar
    21    29    30   ar
    22    30    31   ar
    23    24    25   ar
    24     1    32    1
    25    32    33    1
    26    32    34    1
    27     6     7    1
    28     7     8    1
    29     7     9    1
    30    25    20   ar
    31    31    26   ar
    32     2     5    1
    33    16    19    1
    34    34    35    1
    35     8    10    1
    36     9    11    1
@<TRIPOS>MOLECULE
*****
 35 36 0 0 0
SMALL
GASTEIGER

@<TRIPOS>ATOM
      1 C          61.8628   87.8919   11.3568 C.3     1  UNL1        0.0000
      2 N          62.9807   85.7658   12.3466 N.am    1  UNL1        0.0000
      3 C          62.0800   86.4080   11.3335 C.2     1  UNL1        0.0000
      4 O          61.3964   85.5662   10.2971 O.2     1  UNL1        0.0000
      5 H          63.4293   86.3183   13.0268 H       1  UNL1        0.0000
      6 C          63.1979   84.2818   12.3232 C.3     1  UNL1        0.0000
      7 B          63.9736   83.6548   11.2029 B       1  UNL1        0.0000
      8 O          63.5152   83.8269    9.7850 O.3     1  UNL1        0.0000
      9 O          65.2077   82.8558   11.5004 O.3     1  UNL1        0.0000
     10 H          62.7089   84.3660    9.7691 H       1  UNL1        0.0000
     11 H          65.3620   82.8436   12.4580 H       1  UNL1        0.0000
     12 C          62.6393   83.4247   13.4203 C.3     1  UNL1        0.0000
     13 C          61.3880   81.2558   14.1133 C.3     1  UNL1        0.0000
     14 C          62.2436   82.0060   13.1360 C.3     1  UNL1        0.0000
     15 C          62.7036   81.3376   11.8744 C.3     1  UNL1        0.0000
     16 N          62.9988   88.8110   11.6956 N.am    1  UNL1        0.0000
     17 C          62.8540   89.8028   12.8115 C.2     1  UNL1        0.0000
     18 O          61.5731   89.8756   13.5886 O.2     1  UNL1        0.0000
     19 H          63.8396   88.7632   11.1856 H       1  UNL1        0.0000
     20 C          63.9900   90.7218   13.1503 C.ar    1  UNL1        0.0000
     21 C          64.5070   90.7884   14.5568 C.ar    1  UNL1        0.0000
     22 C          65.6430   91.7074   14.8956 C.ar    1  UNL1        0.0000
     23 C          66.2621   92.5599   13.8279 C.ar    1  UNL1        0.0000
     24 C          65.7452   92.4933   12.4214 C.ar    1  UNL1        0.0000
     25 N          64.6091   91.5742   12.0826 N.ar    1  UNL1        0.0000
     26 C          66.3643   93.3457   11.3536 C.ar    1  UNL1        0.0000
     27 C          66.1212   94.8258   11.3406 C.ar    1  UNL1        0.0000
     28 C          66.7403   95.6782   10.2728 C.ar    1  UNL1        0.0000
     29 C          67.6025   95.0505    9.2180 C.ar    1  UNL1        0.0000
     30 C          67.8456   93.5704    9.2311 C.ar    1  UNL1        0.0000
     31 C          67.2265   92.7180   10.2988 C.ar    1  UNL1        0.0000
     32 C          60.5095   88.4570   11.0413 C.3     1  UNL1        0.0000
     33 C          60.2665   89.1300    9.7230 C.3     1  UNL1        0.0000
     34 O          59.3993   88.3490   12.0442 O.3     1  UNL1        0.0000
     35 H          59.7219   87.8899   12.8355 H       1  UNL1        0.0000
@<TRIPOS>BOND
     1    13    14    1
     2    14    15    1
     3    14    12    1
     4     6    12    1
     5     6     2    1
     6     2     3   am
     7     3     4    2
     8     3     1    1
     9     1    16    1
    10    16    17   am
    11    17    18    2
    12    17    20    1
    13    20    21   ar
    14    21    22   ar
    15    22    23   ar
    16    23    24   ar
    17    24    26    1
    18    26    27   ar
    19    27    28   ar
    20    28    29   ar
    21    29    30   ar
    22    30    31   ar
    23    24    25   ar
    24     1    32    1
    25    32    33    1
    26    32    34    1
    27     6     7    1
    28     7     8    1
    29     7     9    1
    30    25    20   ar
    31    31    26   ar
    32     2     5    1
    33    16    19    1
    34    34    35    1
    35     8    10    1
    36     9    11    1
@<TRIPOS>MOLECULE
*****
 35 36 0 0 0
SMALL
GASTEIGER

@<TRIPOS>ATOM
      1 C          61.7229   87.3436   11.1487 C.3     1  UNL1        0.0000
      2 N          62.9647   85.8852   12.9039 N.am    1  UNL1        0.0000
      3 C          62.1123   85.9938   11.6745 C.2     1  UNL1        0.0000
      4 O          61.6493   84.7527   10.9708 O.2     1  UNL1        0.0000
      5 H          63.2686   86.6998   13.3658 H       1  UNL1        0.0000
      6 C          63.3542   84.5355   13.4297 C.3     1  UNL1        0.0000
      7 B          62.7088   84.0003   14.6736 B       1  UNL1        0.0000
      8 O          63.1502   82.6835   15.2405 O.3     1  UNL1        0.0000
      9 O          61.6222   84.7819   15.3505 O.3     1  UNL1        0.0000
     10 H          63.8550   82.3130   14.6866 H       1  UNL1        0.0000
     11 H          61.4597   85.6022   14.8590 H       1  UNL1        0.0000
     12 C          64.3890   83.7208   12.7117 C.3     1  UNL1        0.0000
     13 C          63.0788   81.6045   11.9668 C.3     1  UNL1        0.0000
     14 C          63.9743   82.7615   11.6357 C.3     1  UNL1        0.0000
     15 C          64.4552   82.9590   10.2287 C.3     1  UNL1        0.0000
     16 N          62.7488   88.4330   11.0459 N.am    1  UNL1        0.0000
     17 C          62.6564   89.6366   11.9362 C.2     1  UNL1        0.0000
     18 O          61.5382   89.7508   12.9294 O.2     1  UNL1        0.0000
     19 H          63.4828   88.3581   10.3941 H       1  UNL1        0.0000
     20 C          63.6824   90.7261   11.8334 C.ar    1  UNL1        0.0000
     21 C          63.7329   91.5959   10.6125 C.ar    1  UNL1        0.0000
     22 C          64.7588   92.6854   10.5097 C.ar    1  UNL1        0.0000
     23 C          65.7342   92.9050   11.6278 C.ar    1  UNL1        0.0000
     24 C          65.6837   92.0351   12.8488 C.ar    1  UNL1        0.0000
     25 N          64.6578   90.9457   12.9516 N.ar    1  UNL1        0.0000
     26 C          66.6592   92.2547   13.9670 C.ar    1  UNL1        0.0000
     27 C          68.1311   92.1095   13.7176 C.ar    1  UNL1        0.0000
     28 C          69.1066   92.3290   14.8359 C.ar    1  UNL1        0.0000
     29 C          68.6100   92.6938   16.2034 C.ar    1  UNL1        0.0000
     30 C          67.1379   92.8391   16.4528 C.ar    1  UNL1        0.0000
     31 C          66.1626   92.6195   15.3346 C.ar    1  UNL1        0.0000
     32 C          60.3074   87.6039   10.7257 C.3     1  UNL1        0.0000
     33 C          59.8880   87.3435    9.3093 C.3     1  UNL1        0.0000
     34 O          59.3115   88.1247   11.7191 O.3     1  UNL1        0.0000
     35 H          59.7427   88.2370   12.5807 H       1  UNL1        0.0000
@<TRIPOS>BOND
     1    13    14    1
     2    14    15    1
     3    14    12    1
     4     6    12    1
     5     6     2    1
     6     2     3   am
     7     3     4    2
     8     3     1    1
     9     1    16    1
    10    16    17   am
    11    17    18    2
    12    17    20    1
    13    20    21   ar
    14    21    22   ar
    15    22    23   ar
    16    23    24   ar
    17    24    26    1
    18    26    27   ar
    19    27    28   ar
    20    28    29   ar
    21    29    30   ar
    22    30    31   ar
    23    24    25   ar
    24     1    32    1
    25    32    33    1
    26    32    34    1
    27     6     7    1
    28     7     8    1
    29     7     9    1
    30    25    20   ar
    31    31    26   ar
    32     2     5    1
    33    16    19    1
    34    34    35    1
    35     8    10    1
    36     9    11    1
@<TRIPOS>MOLECULE
*****
 35 36 0 0 0
SMALL
GASTEIGER

@<TRIPOS>ATOM
      1 C          63.5754   90.5555   11.7952 C.3     1  UNL1        0.0000
      2 N          65.3121   92.4064   11.2400 N.am    1  UNL1        0.0000
      3 C          64.4945   91.6519   12.2461 C.2     1  UNL1        0.0000
      4 O          64.5959   91.9937   13.7031 O.2     1  UNL1        0.0000
      5 H          65.2455   92.1820   10.2838 H       1  UNL1        0.0000
      6 C          66.2312   93.5027   11.6909 C.3     1  UNL1        0.0000
      7 B          66.8325   93.4598   13.0644 B       1  UNL1        0.0000
      8 O          67.9956   92.5553   13.3460 O.3     1  UNL1        0.0000
      9 O          66.2709   94.3213   14.1563 O.3     1  UNL1        0.0000
     10 H          68.2323   92.0722   12.5389 H       1  UNL1        0.0000
     11 H          65.5288   94.8405   13.8091 H       1  UNL1        0.0000
     12 C          66.5489   94.6420   10.7683 C.3     1  UNL1        0.0000
     13 C          67.4755   95.4553    8.4814 C.3     1  UNL1        0.0000
     14 C          67.3974   94.4091    9.5535 C.3     1  UNL1        0.0000
     15 C          68.1678   93.1300    9.4108 C.3     1  UNL1        0.0000
     16 N          63.7907   89.1511   12.2761 N.am    1  UNL1        0.0000
     17 C          63.3847   88.7642   13.6673 C.2     1  UNL1        0.0000
     18 O          62.7634   89.7817   14.5775 O.2     1  UNL1        0.0000
     19 H          64.1985   88.4833   11.6786 H       1  UNL1        0.0000
     20 C          63.6000   87.3597   14.1481 C.ar    1  UNL1        0.0000
     21 C          63.9519   87.1042   15.5837 C.ar    1  UNL1        0.0000
     22 C          64.1672   85.6998   16.0646 C.ar    1  UNL1        0.0000
     23 C          64.0306   84.5509   15.1099 C.ar    1  UNL1        0.0000
     24 C          63.6787   84.8065   13.6744 C.ar    1  UNL1        0.0000
     25 N          63.4634   86.2109   13.1935 N.ar    1  UNL1        0.0000
     26 C          63.5421   83.6576   12.7196 C.ar    1  UNL1        0.0000
     27 C          62.7960   82.4237   13.1328 C.ar    1  UNL1        0.0000
     28 C          62.6594   81.2748   12.1781 C.ar    1  UNL1        0.0000
     29 C          63.2689   81.3599   10.8102 C.ar    1  UNL1        0.0000
     30 C          64.0150   82.5939   10.3969 C.ar    1  UNL1        0.0000
     31 C          64.1516   83.7427   11.3517 C.ar    1  UNL1        0.0000
     32 C          62.4410   90.8636   10.8634 C.3     1  UNL1        0.0000
     33 C          61.0471   90.4314   11.2102 C.3     1  UNL1        0.0000
     34 O          62.7005   91.6039    9.5849 O.3     1  UNL1        0.0000
     35 H          63.6464   91.8071    9.5152 H       1  UNL1        0.0000
@<TRIPOS>BOND
     1    13    14    1
     2    14    15    1
     3    14    12    1
     4     6    12    1
     5     6     2    1
     6     2     3   am
     7     3     4    2
     8     3     1    1
     9     1    16    1
    10    16    17   am
    11    17    18    2
    12    17    20    1
    13    20    21   ar
    14    21    22   ar
    15    22    23   ar
    16    23    24   ar
    17    24    26    1
    18    26    27   ar
    19    27    28   ar
    20    28    29   ar
    21    29    30   ar
    22    30    31   ar
    23    24    25   ar
    24     1    32    1
    25    32    33    1
    26    32    34    1
    27     6     7    1
    28     7     8    1
    29     7     9    1
    30    25    20   ar
    31    31    26   ar
    32     2     5    1
    33    16    19    1
    34    34    35    1
    35     8    10    1
    36     9    11    1
@<TRIPOS>MOLECULE
*****
 35 36 0 0 0
SMALL
GASTEIGER

@<TRIPOS>ATOM
      1 C          61.8404   87.1995   10.4475 C.3     1  UNL1        0.0000
      2 N          62.4327   85.7872   12.5462 N.am    1  UNL1        0.0000
      3 C          62.2625   85.8969   11.0600 C.2     1  UNL1        0.0000
      4 O          62.5142   84.7041   10.1861 O.2     1  UNL1        0.0000
      5 H          62.2675   86.5701   13.1198 H       1  UNL1        0.0000
      6 C          62.8547   84.4846   13.1587 C.3     1  UNL1        0.0000
      7 B          63.3025   83.3535   12.2812 B       1  UNL1        0.0000
      8 O          62.3458   82.2530   11.9295 O.3     1  UNL1        0.0000
      9 O          64.7070   83.3228   11.7554 O.3     1  UNL1        0.0000
     10 H          61.4876   82.4247   12.3476 H       1  UNL1        0.0000
     11 H          65.1889   84.1017   12.0747 H       1  UNL1        0.0000
     12 C          62.8289   84.3131   14.6487 C.3     1  UNL1        0.0000
     13 C          63.0223   85.7050   16.8339 C.3     1  UNL1        0.0000
     14 C          63.6007   85.2542   15.5254 C.3     1  UNL1        0.0000
     15 C          64.9510   85.7444   15.0937 C.3     1  UNL1        0.0000
     16 N          62.7743   88.3732   10.4635 N.am    1  UNL1        0.0000
     17 C          62.6310   89.4315   11.5167 C.2     1  UNL1        0.0000
     18 O          61.5537   89.3161   12.5541 O.2     1  UNL1        0.0000
     19 H          63.4814   88.4490    9.7826 H       1  UNL1        0.0000
     20 C          63.5649   90.6052   11.5326 C.ar    1  UNL1        0.0000
     21 C          63.5714   91.5741   10.3876 C.ar    1  UNL1        0.0000
     22 C          64.5052   92.7478   10.4035 C.ar    1  UNL1        0.0000
     23 C          65.4327   92.9526   11.5645 C.ar    1  UNL1        0.0000
     24 C          65.4262   91.9838   12.7095 C.ar    1  UNL1        0.0000
     25 N          64.4923   90.8101   12.6936 N.ar    1  UNL1        0.0000
     26 C          66.3536   92.1886   13.8706 C.ar    1  UNL1        0.0000
     27 C          67.8378   92.1113   13.6676 C.ar    1  UNL1        0.0000
     28 C          68.7652   92.3161   14.8287 C.ar    1  UNL1        0.0000
     29 C          68.2084   92.5982   16.1927 C.ar    1  UNL1        0.0000
     30 C          66.7242   92.6755   16.3956 C.ar    1  UNL1        0.0000
     31 C          65.7968   92.4707   15.2345 C.ar    1  UNL1        0.0000
     32 C          60.4845   87.3285    9.8192 C.3     1  UNL1        0.0000
     33 C          60.1422   86.5217    8.6018 C.3     1  UNL1        0.0000
     34 O          59.4708   88.2641   10.4082 O.3     1  UNL1        0.0000
     35 H          59.8500   88.7044   11.1848 H       1  UNL1        0.0000
@<TRIPOS>BOND
     1    13    14    1
     2    14    15    1
     3    14    12    1
     4     6    12    1
     5     6     2    1
     6     2     3   am
     7     3     4    2
     8     3     1    1
     9     1    16    1
    10    16    17   am
    11    17    18    2
    12    17    20    1
    13    20    21   ar
    14    21    22   ar
    15    22    23   ar
    16    23    24   ar
    17    24    26    1
    18    26    27   ar
    19    27    28   ar
    20    28    29   ar
    21    29    30   ar
    22    30    31   ar
    23    24    25   ar
    24     1    32    1
    25    32    33    1
    26    32    34    1
    27     6     7    1
    28     7     8    1
    29     7     9    1
    30    25    20   ar
    31    31    26   ar
    32     2     5    1
    33    16    19    1
    34    34    35    1
    35     8    10    1
    36     9    11    1
@<TRIPOS>MOLECULE
*****
 35 36 0 0 0
SMALL
GASTEIGER

@<TRIPOS>ATOM
      1 C          63.2648   90.4967   11.9941 C.3     1  UNL1        0.0000
      2 N          65.0777   92.0061   13.0826 N.am    1  UNL1        0.0000
      3 C          64.2672   91.6072   11.8852 C.2     1  UNL1        0.0000
      4 O          64.4590   92.3189   10.5788 O.2     1  UNL1        0.0000
      5 H          64.9518   91.5390   13.9401 H       1  UNL1        0.0000
      6 C          66.0801   93.1167   12.9737 C.3     1  UNL1        0.0000
      7 B          66.5512   93.5722   11.6244 B       1  UNL1        0.0000
      8 O          66.0374   94.8568   11.0449 O.3     1  UNL1        0.0000
      9 O          67.5360   92.7430   10.8546 O.3     1  UNL1        0.0000
     10 H          65.4142   95.2653   11.6659 H       1  UNL1        0.0000
     11 H          67.7633   91.9518   11.3676 H       1  UNL1        0.0000
     12 C          66.6114   93.7718   14.2141 C.3     1  UNL1        0.0000
     13 C          68.6861   93.8734   15.7747 C.3     1  UNL1        0.0000
     14 C          67.6464   93.0744   15.0461 C.3     1  UNL1        0.0000
     15 C          67.6418   91.5780   15.1496 C.3     1  UNL1        0.0000
     16 N          63.5126   89.3520   12.9312 N.am    1  UNL1        0.0000
     17 C          63.2851   87.9428   12.4704 C.2     1  UNL1        0.0000
     18 O          62.8099   87.6783   11.0725 O.2     1  UNL1        0.0000
     19 H          63.8245   89.5256   13.8487 H       1  UNL1        0.0000
     20 C          63.5329   86.7980   13.4076 C.ar    1  UNL1        0.0000
     21 C          64.1858   87.0436   14.7354 C.ar    1  UNL1        0.0000
     22 C          64.4336   85.8989   15.6725 C.ar    1  UNL1        0.0000
     23 C          64.0284   84.5086   15.2818 C.ar    1  UNL1        0.0000
     24 C          63.3755   84.2630   13.9539 C.ar    1  UNL1        0.0000
     25 N          63.1277   85.4077   13.0168 N.ar    1  UNL1        0.0000
     26 C          62.9702   82.8726   13.5631 C.ar    1  UNL1        0.0000
     27 C          62.0342   82.0908   14.4363 C.ar    1  UNL1        0.0000
     28 C          61.6290   80.7004   14.0455 C.ar    1  UNL1        0.0000
     29 C          62.1599   80.0918   12.7815 C.ar    1  UNL1        0.0000
     30 C          63.0959   80.8737   11.9082 C.ar    1  UNL1        0.0000
     31 C          63.5011   82.2640   12.2990 C.ar    1  UNL1        0.0000
     32 C          62.0146   90.5309   11.1659 C.3     1  UNL1        0.0000
     33 C          60.6814   90.2910   11.8101 C.3     1  UNL1        0.0000
     34 O          62.0976   90.8049    9.6935 O.3     1  UNL1        0.0000
     35 H          63.0249   90.9364    9.4408 H       1  UNL1        0.0000
@<TRIPOS>BOND
     1    13    14    1
     2    14    15    1
     3    14    12    1
     4     6    12    1
     5     6     2    1
     6     2     3   am
     7     3     4    2
     8     3     1    1
     9     1    16    1
    10    16    17   am
    11    17    18    2
    12    17    20    1
    13    20    21   ar
    14    21    22   ar
    15    22    23   ar
    16    23    24   ar
    17    24    26    1
    18    26    27   ar
    19    27    28   ar
    20    28    29   ar
    21    29    30   ar
    22    30    31   ar
    23    24    25   ar
    24     1    32    1
    25    32    33    1
    26    32    34    1
    27     6     7    1
    28     7     8    1
    29     7     9    1
    30    25    20   ar
    31    31    26   ar
    32     2     5    1
    33    16    19    1
    34    34    35    1
    35     8    10    1
    36     9    11    1
@<TRIPOS>MOLECULE
*****
 35 36 0 0 0
SMALL
GASTEIGER

@<TRIPOS>ATOM
      1 C          63.0546   90.3423   11.8525 C.3     1  UNL1        0.0000
      2 N          65.2051   91.6114   12.5697 N.am    1  UNL1        0.0000
      3 C          64.0865   91.3995   11.5931 C.2     1  UNL1        0.0000
      4 O          63.9998   92.2449   10.3571 O.2     1  UNL1        0.0000
      5 H          65.2620   91.0565   13.3810 H       1  UNL1        0.0000
      6 C          66.2371   92.6686   12.3104 C.3     1  UNL1        0.0000
      7 B          66.0672   94.0411   12.8914 B       1  UNL1        0.0000
      8 O          65.7248   95.1965   11.9982 O.3     1  UNL1        0.0000
      9 O          66.2397   94.2581   14.3655 O.3     1  UNL1        0.0000
     10 H          65.6500   94.8861   11.0823 H       1  UNL1        0.0000
     11 H          66.4573   93.4150   14.7931 H       1  UNL1        0.0000
     12 C          67.4389   92.3535   11.4699 C.3     1  UNL1        0.0000
     13 C          68.4059   92.1509    9.0670 C.3     1  UNL1        0.0000
     14 C          67.5132   92.8430   10.0540 C.3     1  UNL1        0.0000
     15 C          66.6949   94.0247    9.6251 C.3     1  UNL1        0.0000
     16 N          63.3502   89.2239   12.8074 N.am    1  UNL1        0.0000
     17 C          63.1797   87.7993   12.3699 C.2     1  UNL1        0.0000
     18 O          62.7136   87.4931   10.9774 O.2     1  UNL1        0.0000
     19 H          63.6562   89.4249   13.7213 H       1  UNL1        0.0000
     20 C          63.4754   86.6810   13.3248 C.ar    1  UNL1        0.0000
     21 C          64.2153   86.9591   14.5996 C.ar    1  UNL1        0.0000
     22 C          64.5109   85.8407   15.5545 C.ar    1  UNL1        0.0000
     23 C          64.0667   84.4442   15.2346 C.ar    1  UNL1        0.0000
     24 C          63.3268   84.1661   13.9598 C.ar    1  UNL1        0.0000
     25 N          63.0311   85.2845   13.0049 N.ar    1  UNL1        0.0000
     26 C          62.8824   82.7695   13.6399 C.ar    1  UNL1        0.0000
     27 C          63.5043   82.0288   12.4933 C.ar    1  UNL1        0.0000
     28 C          63.0600   80.6322   12.1734 C.ar    1  UNL1        0.0000
     29 C          61.9938   79.9765   13.0000 C.ar    1  UNL1        0.0000
     30 C          61.3720   80.7173   14.1466 C.ar    1  UNL1        0.0000
     31 C          61.8163   82.1138   14.4665 C.ar    1  UNL1        0.0000
     32 C          61.7270   90.4034   11.1569 C.3     1  UNL1        0.0000
     33 C          60.4638   90.1637   11.9296 C.3     1  UNL1        0.0000
     34 O          61.6625   90.7041    9.6888 O.3     1  UNL1        0.0000
     35 H          62.5606   90.8317    9.3452 H       1  UNL1        0.0000
@<TRIPOS>BOND
     1    13    14    1
     2    14    15    1
     3    14    12    1
     4     6    12    1
     5     6     2    1
     6     2     3   am
     7     3     4    2
     8     3     1    1
     9     1    16    1
    10    16    17   am
    11    17    18    2
    12    17    20    1
    13    20    21   ar
    14    21    22   ar
    15    22    23   ar
    16    23    24   ar
    17    24    26    1
    18    26    27   ar
    19    27    28   ar
    20    28    29   ar
    21    29    30   ar
    22    30    31   ar
    23    24    25   ar
    24     1    32    1
    25    32    33    1
    26    32    34    1
    27     6     7    1
    28     7     8    1
    29     7     9    1
    30    25    20   ar
    31    31    26   ar
    32     2     5    1
    33    16    19    1
    34    34    35    1
    35     8    10    1
    36     9    11    1
