@<TRIPOS>MOLECULE
*****
 28 31 0 0 0
SMALL
GASTEIGER

@<TRIPOS>ATOM
      1 N          64.5109   83.1312   15.9455 N.3     1  UNL1       -0.3205
      2 C          64.2149   84.4336   15.2629 C.3     1  UNL1        0.0766
      3 C          64.3032   85.7954   15.8854 C.3     1  UNL1        0.1079
      4 N          63.9215   86.8064   14.8451 N.pl3   1  UNL1       -0.2914
      5 C          63.5971   86.0693   13.5795 C.3     1  UNL1        0.0980
      6 C          63.7785   84.6029   13.8377 C.3     1  UNL1        0.0602
      7 H          64.7859   83.3085   16.9116 H       1  UNL1        0.1189
      8 H          65.2704   82.6564   15.4575 H       1  UNL1        0.1189
      9 C          63.5615   83.4994   12.8451 C.ar    1  UNL1        0.0103
     10 C          64.3495   83.4729   11.5690 C.ar    1  UNL1        0.0300
     11 C          64.1325   82.3694   10.5764 C.ar    1  UNL1        0.1672
     12 F          64.9206   82.3428    9.3003 F       1  UNL1       -0.2018
     13 C          63.1276   81.2926   10.8598 C.ar    1  UNL1        0.1696
     14 F          62.9106   80.1892    9.8671 F       1  UNL1       -0.2017
     15 C          62.3395   81.3192   12.1359 C.ar    1  UNL1        0.0612
     16 C          62.5565   82.4226   13.1284 C.ar    1  UNL1        0.1386
     17 F          61.7684   82.4492   14.4046 F       1  UNL1       -0.2044
     18 C          63.8726   88.2933   15.0367 C.ar    1  UNL1        0.1350
     19 C          64.3834   89.2053   13.9609 C.ar    1  UNL1        0.0535
     20 C          64.3345   90.6922   14.1526 C.ar    1  UNL1        0.0863
     21 N          63.7749   91.2671   15.4200 N.ar    1  UNL1       -0.2239
     22 C          63.2640   90.3551   16.4957 C.ar    1  UNL1        0.2000
     23 N          63.3129   88.8682   16.3041 N.ar    1  UNL1       -0.2090
     24 C          64.8454   91.6043   13.0768 C.ar    1  UNL1        0.0248
     25 C          64.3632   91.6500   11.6572 C.ar    1  UNL1        0.0090
     26 C          65.1479   92.7047   10.9348 C.ar    1  UNL1        0.0355
     27 S          66.1150   93.3110   11.9081 S.2     1  UNL1       -0.0859
     28 C          65.9280   92.6308   13.2319 C.ar    1  UNL1        0.0369
@<TRIPOS>BOND
     1     1     2    1
     2     2     3    1
     3     3     4    1
     4     4    18    1
     5    18    19   ar
     6    19    20   ar
     7    20    24    1
     8    24    25   ar
     9    25    26   ar
    10    26    27   ar
    11    27    28   ar
    12    20    21   ar
    13    21    22   ar
    14    22    23   ar
    15     4     5    1
    16     5     6    1
    17     6     9    1
    18     9    10   ar
    19    10    11   ar
    20    11    12    1
    21    11    13   ar
    22    13    14    1
    23    13    15   ar
    24    15    16   ar
    25    16    17    1
    26     6     2    1
    27    16     9   ar
    28    23    18   ar
    29    28    24   ar
    30     1     7    1
    31     1     8    1
@<TRIPOS>MOLECULE
*****
 28 31 0 0 0
SMALL
GASTEIGER

@<TRIPOS>ATOM
      1 N          59.7209   88.5119   11.9493 N.3     1  UNL1       -0.3205
      2 C          61.0700   89.0798   11.6220 C.3     1  UNL1        0.0766
      3 C          61.7862   90.1503   12.3909 C.3     1  UNL1        0.1079
      4 N          63.0987   90.4091   11.7124 N.pl3   1  UNL1       -0.2914
      5 C          63.1937   89.4986   10.5241 C.3     1  UNL1        0.0980
      6 C          61.9400   88.6771   10.4682 C.3     1  UNL1        0.0602
      7 H          59.3542   88.9668   12.7853 H       1  UNL1        0.1189
      8 H          59.8057   87.5094   12.1172 H       1  UNL1        0.1189
      9 C          61.6135   87.6356    9.4392 C.ar    1  UNL1        0.0103
     10 C          62.5457   86.4815    9.2182 C.ar    1  UNL1        0.0300
     11 C          62.2191   85.4400    8.1892 C.ar    1  UNL1        0.1672
     12 F          63.1513   84.2859    7.9682 F       1  UNL1       -0.2018
     13 C          60.9604   85.5528    7.3813 C.ar    1  UNL1        0.1696
     14 F          60.6339   84.5113    6.3524 F       1  UNL1       -0.2017
     15 C          60.0281   86.7070    7.6023 C.ar    1  UNL1        0.0612
     16 C          60.3547   87.7483    8.6313 C.ar    1  UNL1        0.1386
     17 F          59.4224   88.9026    8.8523 F       1  UNL1       -0.2044
     18 C          64.1344   91.4039   12.1461 C.ar    1  UNL1        0.1350
     19 C          64.7447   92.3369   11.1426 C.ar    1  UNL1        0.0535
     20 C          65.7803   93.3316   11.5763 C.ar    1  UNL1        0.0863
     21 N          66.2056   93.3932   13.0135 N.ar    1  UNL1       -0.2239
     22 C          65.5953   92.4601   14.0169 C.ar    1  UNL1        0.2000
     23 N          64.5597   91.4654   13.5832 N.ar    1  UNL1       -0.2090
     24 C          66.3906   94.2647   10.5729 C.ar    1  UNL1        0.0248
     25 C          67.2917   93.8737    9.4393 C.ar    1  UNL1        0.0090
     26 C          67.6650   95.1200    8.6927 C.ar    1  UNL1        0.0355
     27 S          66.9946   96.2813    9.3650 S.2     1  UNL1       -0.0859
     28 C          66.2070   95.7527   10.5270 C.ar    1  UNL1        0.0369
@<TRIPOS>BOND
     1     1     2    1
     2     2     3    1
     3     3     4    1
     4     4    18    1
     5    18    19   ar
     6    19    20   ar
     7    20    24    1
     8    24    25   ar
     9    25    26   ar
    10    26    27   ar
    11    27    28   ar
    12    20    21   ar
    13    21    22   ar
    14    22    23   ar
    15     4     5    1
    16     5     6    1
    17     6     9    1
    18     9    10   ar
    19    10    11   ar
    20    11    12    1
    21    11    13   ar
    22    13    14    1
    23    13    15   ar
    24    15    16   ar
    25    16    17    1
    26     6     2    1
    27    16     9   ar
    28    23    18   ar
    29    28    24   ar
    30     1     7    1
    31     1     8    1
@<TRIPOS>MOLECULE
*****
 28 31 0 0 0
SMALL
GASTEIGER

@<TRIPOS>ATOM
      1 N          61.2544   85.9695    9.8404 N.3     1  UNL1       -0.3205
      2 C          62.0630   86.4970   10.9884 C.3     1  UNL1        0.0766
      3 C          62.3097   87.9429   11.3023 C.3     1  UNL1        0.1079
      4 N          63.1660   88.0108   12.5320 N.pl3   1  UNL1       -0.2914
      5 C          63.4486   86.6068   12.9781 C.3     1  UNL1        0.0980
      6 C          62.7669   85.6713   12.0241 C.3     1  UNL1        0.0602
      7 H          60.8900   86.7500    9.2942 H       1  UNL1        0.1189
      8 H          60.4780   85.4133   10.1986 H       1  UNL1        0.1189
      9 C          62.7858   84.1730   12.0937 C.ar    1  UNL1        0.0103
     10 C          62.2553   83.4718   13.3090 C.ar    1  UNL1        0.0300
     11 C          62.2742   81.9735   13.3785 C.ar    1  UNL1        0.1672
     12 F          61.7437   81.2724   14.5938 F       1  UNL1       -0.2018
     13 C          62.8235   81.1765   12.2327 C.ar    1  UNL1        0.1696
     14 F          62.8424   79.6782   12.3023 F       1  UNL1       -0.2017
     15 C          63.3541   81.8777   11.0174 C.ar    1  UNL1        0.0612
     16 C          63.3351   83.3758   10.9479 C.ar    1  UNL1        0.1386
     17 F          63.8656   84.0771    9.7325 F       1  UNL1       -0.2044
     18 C          63.6541   89.2628   13.1985 C.ar    1  UNL1        0.1350
     19 C          64.2557   90.3642   12.3770 C.ar    1  UNL1        0.0535
     20 C          64.7437   91.6162   13.0435 C.ar    1  UNL1        0.0863
     21 N          64.6301   91.7668   14.5316 N.ar    1  UNL1       -0.2239
     22 C          64.0285   90.6654   15.3532 C.ar    1  UNL1        0.2000
     23 N          63.5405   89.4134   14.6866 N.ar    1  UNL1       -0.2090
     24 C          65.3454   92.7177   12.2220 C.ar    1  UNL1        0.0248
     25 C          66.1098   93.8950   12.7505 C.ar    1  UNL1        0.0090
     26 C          66.5251   94.7401   11.5829 C.ar    1  UNL1        0.0355
     27 S          66.0173   94.0850   10.3326 S.2     1  UNL1       -0.0859
     28 C          65.2882   92.8350   10.7277 C.ar    1  UNL1        0.0369
@<TRIPOS>BOND
     1     1     2    1
     2     2     3    1
     3     3     4    1
     4     4    18    1
     5    18    19   ar
     6    19    20   ar
     7    20    24    1
     8    24    25   ar
     9    25    26   ar
    10    26    27   ar
    11    27    28   ar
    12    20    21   ar
    13    21    22   ar
    14    22    23   ar
    15     4     5    1
    16     5     6    1
    17     6     9    1
    18     9    10   ar
    19    10    11   ar
    20    11    12    1
    21    11    13   ar
    22    13    14    1
    23    13    15   ar
    24    15    16   ar
    25    16    17    1
    26     6     2    1
    27    16     9   ar
    28    23    18   ar
    29    28    24   ar
    30     1     7    1
    31     1     8    1
@<TRIPOS>MOLECULE
*****
 28 31 0 0 0
SMALL
GASTEIGER

@<TRIPOS>ATOM
      1 N          65.6406   93.6031   11.0966 N.3     1  UNL1       -0.3205
      2 C          64.9017   92.3807   11.5545 C.3     1  UNL1        0.0766
      3 C          63.7572   91.7235   10.8416 C.3     1  UNL1        0.1079
      4 N          63.3258   90.5375   11.6522 N.pl3   1  UNL1       -0.2914
      5 C          64.2036   90.4616   12.8662 C.3     1  UNL1        0.0980
      6 C          65.1776   91.6008   12.8058 C.3     1  UNL1        0.0602
      7 H          65.2453   93.9288   10.2145 H       1  UNL1        0.1189
      8 H          66.6259   93.3751   10.9640 H       1  UNL1        0.1189
      9 C          66.2408   91.9064   13.8188 C.ar    1  UNL1        0.0103
     10 C          67.6792   91.9747   13.3991 C.ar    1  UNL1        0.0300
     11 C          68.7424   92.2803   14.4121 C.ar    1  UNL1        0.1672
     12 F          70.1809   92.3485   13.9924 F       1  UNL1       -0.2018
     13 C          68.3671   92.5177   15.8448 C.ar    1  UNL1        0.1696
     14 F          69.4303   92.8233   16.8579 F       1  UNL1       -0.2017
     15 C          66.9286   92.4495   16.2646 C.ar    1  UNL1        0.0612
     16 C          65.8655   92.1439   15.2516 C.ar    1  UNL1        0.1386
     17 F          64.4269   92.0756   15.6713 F       1  UNL1       -0.2044
     18 C          62.2120   89.5930   11.3091 C.ar    1  UNL1        0.1350
     19 C          62.4110   88.5531   10.2467 C.ar    1  UNL1        0.0535
     20 C          61.2973   87.6087    9.9037 C.ar    1  UNL1        0.0863
     21 N          59.9845   87.7043   10.6231 N.ar    1  UNL1       -0.2239
     22 C          59.7855   88.7443   11.6855 C.ar    1  UNL1        0.2000
     23 N          60.8992   89.6887   12.0285 N.ar    1  UNL1       -0.2090
     24 C          61.4962   86.5687    8.8412 C.ar    1  UNL1        0.0248
     25 C          62.7559   85.7938    8.5908 C.ar    1  UNL1        0.0090
     26 C          62.5087   84.8672    7.4375 C.ar    1  UNL1        0.0355
     27 S          61.0961   85.0693    6.9750 S.2     1  UNL1       -0.0859
     28 C          60.4704   86.1209    7.8426 C.ar    1  UNL1        0.0369
@<TRIPOS>BOND
     1     1     2    1
     2     2     3    1
     3     3     4    1
     4     4    18    1
     5    18    19   ar
     6    19    20   ar
     7    20    24    1
     8    24    25   ar
     9    25    26   ar
    10    26    27   ar
    11    27    28   ar
    12    20    21   ar
    13    21    22   ar
    14    22    23   ar
    15     4     5    1
    16     5     6    1
    17     6     9    1
    18     9    10   ar
    19    10    11   ar
    20    11    12    1
    21    11    13   ar
    22    13    14    1
    23    13    15   ar
    24    15    16   ar
    25    16    17    1
    26     6     2    1
    27    16     9   ar
    28    23    18   ar
    29    28    24   ar
    30     1     7    1
    31     1     8    1
@<TRIPOS>MOLECULE
*****
 28 31 0 0 0
SMALL
GASTEIGER

@<TRIPOS>ATOM
      1 N          64.4579   83.6649   16.0020 N.3     1  UNL1       -0.3205
      2 C          64.1441   84.7109   14.9737 C.3     1  UNL1        0.0766
      3 C          64.2790   86.1938   15.1548 C.3     1  UNL1        0.1079
      4 N          63.8586   86.8570   13.8767 N.pl3   1  UNL1       -0.2914
      5 C          63.4640   85.7840   12.9057 C.3     1  UNL1        0.0980
      6 C          63.6404   84.4577   13.5836 C.3     1  UNL1        0.0602
      7 H          64.7820   84.1158   16.8576 H       1  UNL1        0.1189
      8 H          65.1869   83.0464   15.6464 H       1  UNL1        0.1189
      9 C          63.3620   83.1139   12.9779 C.ar    1  UNL1        0.0103
     10 C          62.4417   82.1544   13.6722 C.ar    1  UNL1        0.0300
     11 C          62.1633   80.8106   13.0665 C.ar    1  UNL1        0.1672
     12 F          61.2429   79.8511   13.7609 F       1  UNL1       -0.2018
     13 C          62.8053   80.4265   11.7665 C.ar    1  UNL1        0.1696
     14 F          62.5269   79.0828   11.1607 F       1  UNL1       -0.2017
     15 C          63.7257   81.3861   11.0721 C.ar    1  UNL1        0.0612
     16 C          64.0040   82.7297   11.6778 C.ar    1  UNL1        0.1386
     17 F          64.9245   83.6894   10.9834 F       1  UNL1       -0.2044
     18 C          63.8368   88.3340   13.6156 C.ar    1  UNL1        0.1350
     19 C          64.8760   89.2206   14.2350 C.ar    1  UNL1        0.0535
     20 C          64.8541   90.6975   13.9738 C.ar    1  UNL1        0.0863
     21 N          63.7930   91.2878   13.0932 N.ar    1  UNL1       -0.2239
     22 C          62.7537   90.4012   12.4738 C.ar    1  UNL1        0.2000
     23 N          62.7756   88.9243   12.7350 N.ar    1  UNL1       -0.2090
     24 C          65.8935   91.5842   14.5932 C.ar    1  UNL1        0.0248
     25 C          65.7962   92.2550   15.9313 C.ar    1  UNL1        0.0090
     26 C          67.0551   93.0412   16.1483 C.ar    1  UNL1        0.0355
     27 S          67.9305   92.8562   14.9443 S.2     1  UNL1       -0.0859
     28 C          67.2125   91.9558   13.9832 C.ar    1  UNL1        0.0369
@<TRIPOS>BOND
     1     1     2    1
     2     2     3    1
     3     3     4    1
     4     4    18    1
     5    18    19   ar
     6    19    20   ar
     7    20    24    1
     8    24    25   ar
     9    25    26   ar
    10    26    27   ar
    11    27    28   ar
    12    20    21   ar
    13    21    22   ar
    14    22    23   ar
    15     4     5    1
    16     5     6    1
    17     6     9    1
    18     9    10   ar
    19    10    11   ar
    20    11    12    1
    21    11    13   ar
    22    13    14    1
    23    13    15   ar
    24    15    16   ar
    25    16    17    1
    26     6     2    1
    27    16     9   ar
    28    23    18   ar
    29    28    24   ar
    30     1     7    1
    31     1     8    1
@<TRIPOS>MOLECULE
*****
 28 31 0 0 0
SMALL
GASTEIGER

@<TRIPOS>ATOM
      1 N          64.6234   84.1060   14.9788 N.3     1  UNL1       -0.3205
      2 C          63.9910   84.9692   13.9277 C.3     1  UNL1        0.0766
      3 C          63.9230   86.4676   13.9409 C.3     1  UNL1        0.1079
      4 N          63.2055   86.9100   12.7001 N.pl3   1  UNL1       -0.2914
      5 C          62.8300   85.6851   11.9201 C.3     1  UNL1        0.0980
      6 C          63.3155   84.4856   12.6787 C.3     1  UNL1        0.0602
      7 H          65.0075   84.6957   15.7172 H       1  UNL1        0.1189
      8 H          65.3722   83.5542   14.5603 H       1  UNL1        0.1189
      9 C          63.1538   83.0538   12.2617 C.ar    1  UNL1        0.0103
     10 C          62.4963   82.0729   13.1866 C.ar    1  UNL1        0.0300
     11 C          62.3347   80.6411   12.7695 C.ar    1  UNL1        0.1672
     12 F          61.6772   79.6602   13.6945 F       1  UNL1       -0.2018
     13 C          62.8304   80.1904   11.4276 C.ar    1  UNL1        0.1696
     14 F          62.6688   78.7586   11.0106 F       1  UNL1       -0.2017
     15 C          63.4879   81.1713   10.5026 C.ar    1  UNL1        0.0612
     16 C          63.6496   82.6030   10.9197 C.ar    1  UNL1        0.1386
     17 F          64.3071   83.5840    9.9947 F       1  UNL1       -0.2044
     18 C          62.9146   88.3285   12.3082 C.ar    1  UNL1        0.1350
     19 C          63.9562   89.3897   12.5051 C.ar    1  UNL1        0.0535
     20 C          63.6652   90.8080   12.1132 C.ar    1  UNL1        0.0863
     21 N          62.3326   91.1651   11.5244 N.ar    1  UNL1       -0.2239
     22 C          61.2910   90.1039   11.3275 C.ar    1  UNL1        0.2000
     23 N          61.5820   88.6856   11.7194 N.ar    1  UNL1       -0.2090
     24 C          64.7069   91.8693   12.3102 C.ar    1  UNL1        0.0248
     25 C          65.1899   92.8347   11.2687 C.ar    1  UNL1        0.0090
     26 C          66.2299   93.7135   11.8980 C.ar    1  UNL1        0.0355
     27 S          66.3896   93.2913   13.3285 S.2     1  UNL1       -0.0859
     28 C          65.4483   92.1515   13.5832 C.ar    1  UNL1        0.0369
@<TRIPOS>BOND
     1     1     2    1
     2     2     3    1
     3     3     4    1
     4     4    18    1
     5    18    19   ar
     6    19    20   ar
     7    20    24    1
     8    24    25   ar
     9    25    26   ar
    10    26    27   ar
    11    27    28   ar
    12    20    21   ar
    13    21    22   ar
    14    22    23   ar
    15     4     5    1
    16     5     6    1
    17     6     9    1
    18     9    10   ar
    19    10    11   ar
    20    11    12    1
    21    11    13   ar
    22    13    14    1
    23    13    15   ar
    24    15    16   ar
    25    16    17    1
    26     6     2    1
    27    16     9   ar
    28    23    18   ar
    29    28    24   ar
    30     1     7    1
    31     1     8    1
@<TRIPOS>MOLECULE
*****
 28 31 0 0 0
SMALL
GASTEIGER

@<TRIPOS>ATOM
      1 N          64.9140   84.5661   15.2069 N.3     1  UNL1       -0.3205
      2 C          64.1639   85.3160   14.1462 C.3     1  UNL1        0.0766
      3 C          64.1367   86.8055   13.9716 C.3     1  UNL1        0.1079
      4 N          63.2653   87.1181   12.7914 N.pl3   1  UNL1       -0.2914
      5 C          62.7539   85.8217   12.2365 C.3     1  UNL1        0.0980
      6 C          63.3093   84.7079   13.0738 C.3     1  UNL1        0.0602
      7 H          65.4119   85.2273   15.8030 H       1  UNL1        0.1189
      8 H          65.5831   83.9339   14.7676 H       1  UNL1        0.1189
      9 C          63.0547   83.2432   12.8739 C.ar    1  UNL1        0.0103
     10 C          63.2898   82.6176   11.5311 C.ar    1  UNL1        0.0300
     11 C          63.0353   81.1529   11.3312 C.ar    1  UNL1        0.1672
     12 F          63.2704   80.5272    9.9883 F       1  UNL1       -0.2018
     13 C          62.5456   80.3140   12.4741 C.ar    1  UNL1        0.1696
     14 F          62.2911   78.8493   12.2742 F       1  UNL1       -0.2017
     15 C          62.3105   80.9396   13.8170 C.ar    1  UNL1        0.0612
     16 C          62.5650   82.4042   14.0168 C.ar    1  UNL1        0.1386
     17 F          62.3299   83.0300   15.3598 F       1  UNL1       -0.2044
     18 C          62.9591   88.4868   12.2594 C.ar    1  UNL1        0.1350
     19 C          63.9750   89.5835   12.3814 C.ar    1  UNL1        0.0535
     20 C          63.6687   90.9521   11.8495 C.ar    1  UNL1        0.0863
     21 N          62.3465   91.2240   11.1954 N.ar    1  UNL1       -0.2239
     22 C          61.3305   90.1273   11.0734 C.ar    1  UNL1        0.2000
     23 N          61.6368   88.7586   11.6054 N.ar    1  UNL1       -0.2090
     24 C          64.6847   92.0489   11.9715 C.ar    1  UNL1        0.0248
     25 C          65.1057   92.9863   10.8788 C.ar    1  UNL1        0.0090
     26 C          66.1392   93.9176   11.4397 C.ar    1  UNL1        0.0355
     27 S          66.3570   93.5558   12.8791 S.2     1  UNL1       -0.0859
     28 C          65.4580   92.4009   13.2077 C.ar    1  UNL1        0.0369
@<TRIPOS>BOND
     1     1     2    1
     2     2     3    1
     3     3     4    1
     4     4    18    1
     5    18    19   ar
     6    19    20   ar
     7    20    24    1
     8    24    25   ar
     9    25    26   ar
    10    26    27   ar
    11    27    28   ar
    12    20    21   ar
    13    21    22   ar
    14    22    23   ar
    15     4     5    1
    16     5     6    1
    17     6     9    1
    18     9    10   ar
    19    10    11   ar
    20    11    12    1
    21    11    13   ar
    22    13    14    1
    23    13    15   ar
    24    15    16   ar
    25    16    17    1
    26     6     2    1
    27    16     9   ar
    28    23    18   ar
    29    28    24   ar
    30     1     7    1
    31     1     8    1
@<TRIPOS>MOLECULE
*****
 28 31 0 0 0
SMALL
GASTEIGER

@<TRIPOS>ATOM
      1 N          61.5249   87.7709   11.2473 N.3     1  UNL1       -0.3205
      2 C          62.6063   88.3779   12.0912 C.3     1  UNL1        0.0766
      3 C          63.0197   89.8198   12.0915 C.3     1  UNL1        0.1079
      4 N          64.1330   89.9826   13.0835 N.pl3   1  UNL1       -0.2914
      5 C          64.4077   88.6413   13.6963 C.3     1  UNL1        0.0980
      6 C          63.4642   87.6495   13.0831 C.3     1  UNL1        0.0602
      7 H          61.1038   88.4932   10.6631 H       1  UNL1        0.1189
      8 H          60.8112   87.3628   11.8510 H       1  UNL1        0.1189
      9 C          63.3912   86.1863   13.4051 C.ar    1  UNL1        0.0103
     10 C          62.9441   85.2094   12.3583 C.ar    1  UNL1        0.0300
     11 C          62.8711   83.7461   12.6803 C.ar    1  UNL1        0.1672
     12 F          62.4239   82.7692   11.6336 F       1  UNL1       -0.2018
     13 C          63.2453   83.2599   14.0491 C.ar    1  UNL1        0.1696
     14 F          63.1724   81.7967   14.3711 F       1  UNL1       -0.2017
     15 C          63.6925   84.2369   15.0959 C.ar    1  UNL1        0.0612
     16 C          63.7654   85.7000   14.7738 C.ar    1  UNL1        0.1386
     17 F          64.2126   86.6770   15.8206 F       1  UNL1       -0.2044
     18 C          64.8465   91.2621   13.4061 C.ar    1  UNL1        0.1350
     19 C          65.2270   92.2068   12.3049 C.ar    1  UNL1        0.0535
     20 C          65.9404   93.4862   12.6275 C.ar    1  UNL1        0.0863
     21 N          66.2732   93.8209   14.0513 N.ar    1  UNL1       -0.2239
     22 C          65.8926   92.8763   15.1525 C.ar    1  UNL1        0.2000
     23 N          65.1793   91.5968   14.8299 N.ar    1  UNL1       -0.2090
     24 C          66.3210   94.4310   11.5262 C.ar    1  UNL1        0.0248
     25 C          66.1829   95.9242   11.5586 C.ar    1  UNL1        0.0090
     26 C          66.6830   96.4645   10.2517 C.ar    1  UNL1        0.0355
     27 S          67.1302   95.3050    9.4116 S.2     1  UNL1       -0.0859
     28 C          66.9065   94.0483   10.1993 C.ar    1  UNL1        0.0369
@<TRIPOS>BOND
     1     1     2    1
     2     2     3    1
     3     3     4    1
     4     4    18    1
     5    18    19   ar
     6    19    20   ar
     7    20    24    1
     8    24    25   ar
     9    25    26   ar
    10    26    27   ar
    11    27    28   ar
    12    20    21   ar
    13    21    22   ar
    14    22    23   ar
    15     4     5    1
    16     5     6    1
    17     6     9    1
    18     9    10   ar
    19    10    11   ar
    20    11    12    1
    21    11    13   ar
    22    13    14    1
    23    13    15   ar
    24    15    16   ar
    25    16    17    1
    26     6     2    1
    27    16     9   ar
    28    23    18   ar
    29    28    24   ar
    30     1     7    1
    31     1     8    1
@<TRIPOS>MOLECULE
*****
 28 31 0 0 0
SMALL
GASTEIGER

@<TRIPOS>ATOM
      1 N          65.0860   93.4652   11.4405 N.3     1  UNL1       -0.3205
      2 C          64.6637   92.0914   11.8699 C.3     1  UNL1        0.0766
      3 C          63.6302   91.2365   11.1984 C.3     1  UNL1        0.1079
      4 N          63.5286   89.9481   11.9597 N.pl3   1  UNL1       -0.2914
      5 C          64.4993   90.0066   13.1017 C.3     1  UNL1        0.0980
      6 C          65.2009   91.3313   13.0462 C.3     1  UNL1        0.0602
      7 H          64.5593   93.7391   10.6110 H       1  UNL1        0.1189
      8 H          66.0829   93.4626   11.2247 H       1  UNL1        0.1189
      9 C          66.2547   91.8115   13.9996 C.ar    1  UNL1        0.0103
     10 C          67.6778   91.9385   13.5428 C.ar    1  UNL1        0.0300
     11 C          68.7315   92.4187   14.4962 C.ar    1  UNL1        0.1672
     12 F          70.1546   92.5457   14.0393 F       1  UNL1       -0.2018
     13 C          68.3622   92.7719   15.9064 C.ar    1  UNL1        0.1696
     14 F          69.4160   93.2522   16.8598 F       1  UNL1       -0.2017
     15 C          66.9391   92.6449   16.3633 C.ar    1  UNL1        0.0612
     16 C          65.8854   92.1647   15.4099 C.ar    1  UNL1        0.1386
     17 F          64.4622   92.0377   15.8667 F       1  UNL1       -0.2044
     18 C          62.6163   88.8022   11.6359 C.ar    1  UNL1        0.1350
     19 C          62.9974   87.4058   12.0292 C.ar    1  UNL1        0.0535
     20 C          62.0852   86.2600   11.7053 C.ar    1  UNL1        0.0863
     21 N          60.7918   86.5107   10.9881 N.ar    1  UNL1       -0.2239
     22 C          60.4106   87.9071   10.5948 C.ar    1  UNL1        0.2000
     23 N          61.3229   89.0528   10.9187 N.ar    1  UNL1       -0.2090
     24 C          62.4663   84.8635   12.0986 C.ar    1  UNL1        0.0248
     25 C          62.6377   84.3580   13.5004 C.ar    1  UNL1        0.0090
     26 C          63.0202   82.9095   13.4273 C.ar    1  UNL1        0.0355
     27 S          63.0852   82.5197   11.9802 S.2     1  UNL1       -0.0859
     28 C          62.7428   83.7273   11.1591 C.ar    1  UNL1        0.0369
@<TRIPOS>BOND
     1     1     2    1
     2     2     3    1
     3     3     4    1
     4     4    18    1
     5    18    19   ar
     6    19    20   ar
     7    20    24    1
     8    24    25   ar
     9    25    26   ar
    10    26    27   ar
    11    27    28   ar
    12    20    21   ar
    13    21    22   ar
    14    22    23   ar
    15     4     5    1
    16     5     6    1
    17     6     9    1
    18     9    10   ar
    19    10    11   ar
    20    11    12    1
    21    11    13   ar
    22    13    14    1
    23    13    15   ar
    24    15    16   ar
    25    16    17    1
    26     6     2    1
    27    16     9   ar
    28    23    18   ar
    29    28    24   ar
    30     1     7    1
    31     1     8    1
