@<TRIPOS>MOLECULE
*****
 44 46 0 0 0
SMALL
GASTEIGER

@<TRIPOS>ATOM
      1 C          60.9937   88.4422   10.2333 C.3     1  UNL1        0.1054
      2 C          59.9680   88.2294    9.1598 C.3     1  UNL1        0.1689
      3 S          59.9469   86.9441    8.3868 S.O2    1  UNL1       -0.0085
      4 O          59.5262   85.9060    7.3891 O.2     1  UNL1       -0.1729
      5 O          58.7961   87.6560    7.7397 O.2     1  UNL1       -0.1729
      6 C          60.9516   85.8716    8.6874 C.3     1  UNL1        0.1536
      7 C          61.9773   86.0844    9.7610 C.3     1  UNL1        0.0562
      8 C          61.9984   87.3697   10.5339 C.3     1  UNL1        0.1285
      9 O          63.0241   87.5826   11.6075 O.3     1  UNL1       -0.3830
     10 H          62.8990   88.4585   12.0052 H       1  UNL1        0.2104
     11 N          61.0148   89.7276   11.0063 N.3     1  UNL1       -0.2901
     12 H          60.1157   90.1820   10.8466 H       1  UNL1        0.1237
     13 C          62.0736   90.7529   10.7279 C.3     1  UNL1        0.1187
     14 C          65.1560   91.8663   12.8076 C.ar    1  UNL1        0.1541
     15 C          64.2488   92.0226   11.6232 C.ar    1  UNL1        0.0550
     16 C          63.1895   90.9640   11.7079 C.ar    1  UNL1        0.1162
     17 N          63.4418   90.1535   12.9446 N.ar    1  UNL1       -0.0804
     18 O          64.6572   90.7112   13.6243 O.2     1  UNL1       -0.3580
     19 C          66.3518   92.7160   13.1204 C.3     1  UNL1        0.0673
     20 C          68.1868   91.6679   13.3057 C.3     1  UNL1        0.0004
     21 C          67.2539   92.3503   14.2617 C.3     1  UNL1        0.0072
     22 C          66.3209   93.0327   15.2177 C.3     1  UNL1        0.0004
     23 C          68.1559   91.9846   15.4029 C.3     1  UNL1        0.0004
     24 C          62.9820   85.0119   10.0616 C.3     1  UNL1        0.0307
     25 C          62.7899   84.1159   11.2491 C.ar    1  UNL1       -0.0167
     26 C          62.9092   82.6287   11.0937 C.ar    1  UNL1        0.0268
     27 C          62.7172   81.7327   12.2812 C.ar    1  UNL1        0.1556
     28 F          62.8365   80.2455   12.1257 F       1  UNL1       -0.2028
     29 C          62.4058   82.3238   13.6242 C.ar    1  UNL1        0.1037
     30 N          62.2138   81.4277   14.8117 N.pl3   1  UNL1       -0.3529
     31 C          62.2865   83.8109   13.7797 C.ar    1  UNL1        0.1538
     32 C          62.4786   84.7070   12.5921 C.ar    1  UNL1        0.0341
     33 H          62.2921   80.4516   14.7096 H       1  UNL1        0.1425
     34 H          62.0094   81.8156   15.6932 H       1  UNL1        0.1425
     35 O          61.9752   84.4020   15.1227 O.3     1  UNL1       -0.4621
     36 C          63.0157   85.2012   15.8498 C.3     1  UNL1        0.3551
     37 C          64.3950   85.3354   15.2757 C.3     1  UNL1        0.4428
     38 F          65.7743   85.4696   14.7016 F       1  UNL1       -0.1661
     39 F          64.1214   86.7749   14.9549 F       1  UNL1       -0.1661
     40 F          64.6686   83.8959   15.5966 F       1  UNL1       -0.1661
     41 C          62.6769   85.8661   17.1510 C.3     1  UNL1        0.4428
     42 F          62.3382   86.5310   18.4522 F       1  UNL1       -0.1661
     43 F          64.1223   85.8220   17.5498 F       1  UNL1       -0.1661
     44 F          61.2316   85.9101   16.7522 F       1  UNL1       -0.1661
@<TRIPOS>BOND
     1    20    21    1
     2    21    22    1
     3    21    23    1
     4    21    19    1
     5    19    14    1
     6    14    15   ar
     7    15    16   ar
     8    16    13    1
     9    13    11    1
    10     1    11    1
    11     1     2    1
    12     2     3    1
    13     3     4    2
    14     3     5    2
    15     3     6    1
    16     6     7    1
    17     7    24    1
    18    24    25    1
    19    25    26   ar
    20    26    27   ar
    21    27    28    1
    22    27    29   ar
    23    29    30    1
    24    29    31   ar
    25    31    35    1
    26    35    36    1
    27    36    37    1
    28    37    38    1
    29    37    39    1
    30    37    40    1
    31    36    41    1
    32    41    42    1
    33    41    43    1
    34    41    44    1
    35    31    32   ar
    36     7     8    1
    37     8     9    1
    38    16    17   ar
    39    17    18   ar
    40    18    14   ar
    41     8     1    1
    42    32    25   ar
    43    11    12    1
    44    30    33    1
    45    30    34    1
    46     9    10    1
@<TRIPOS>MOLECULE
*****
 44 46 0 0 0
SMALL
GASTEIGER

@<TRIPOS>ATOM
      1 C          60.9104   88.4249   10.2642 C.3     1  UNL1        0.1054
      2 C          59.9113   88.1946    9.1694 C.3     1  UNL1        0.1689
      3 S          59.9392   86.9161    8.3854 S.O2    1  UNL1       -0.0085
      4 O          59.5653   85.8762    7.3711 O.2     1  UNL1       -0.1729
      5 O          58.7823   87.6030    7.7223 O.2     1  UNL1       -0.1729
      6 C          60.9663   85.8680    8.6962 C.3     1  UNL1        0.1536
      7 C          61.9654   86.0983    9.7910 C.3     1  UNL1        0.0562
      8 C          61.9375   87.3768   10.5750 C.3     1  UNL1        0.1285
      9 O          62.9367   87.6072   11.6698 O.3     1  UNL1       -0.3830
     10 H          62.7807   88.4758   12.0724 H       1  UNL1        0.2104
     11 N          60.8826   89.7034   11.0482 N.3     1  UNL1       -0.2901
     12 H          59.9205   90.0414   11.0262 H       1  UNL1        0.1237
     13 C          61.7549   90.8531   10.6394 C.3     1  UNL1        0.1187
     14 C          65.2407   91.9555   11.9433 C.ar    1  UNL1        0.1541
     15 C          64.1850   91.9407   10.8777 C.ar    1  UNL1        0.0550
     16 C          63.0286   91.1293   11.3820 C.ar    1  UNL1        0.1162
     17 N          63.3695   90.6426   12.7593 N.ar    1  UNL1       -0.0804
     18 O          64.7366   91.1532   13.1062 O.2     1  UNL1       -0.3580
     19 C          66.5673   92.6505   11.8606 C.3     1  UNL1        0.0673
     20 C          66.1629   94.6277   11.2072 C.3     1  UNL1        0.0004
     21 C          66.9163   93.4585   10.6459 C.3     1  UNL1        0.0072
     22 C          67.6697   92.2892   10.0846 C.3     1  UNL1        0.0004
     23 C          67.2652   94.2664    9.4313 C.3     1  UNL1        0.0004
     24 C          62.9925   85.0502   10.1018 C.3     1  UNL1        0.0307
     25 C          62.8018   84.1387   11.2777 C.ar    1  UNL1       -0.0167
     26 C          62.9239   82.6538   11.1032 C.ar    1  UNL1        0.0268
     27 C          62.7332   81.7423   12.2790 C.ar    1  UNL1        0.1556
     28 F          62.8553   80.2574   12.1046 F       1  UNL1       -0.2028
     29 C          62.4204   82.3155   13.6294 C.ar    1  UNL1        0.1037
     30 N          62.2297   81.4039   14.8053 N.pl3   1  UNL1       -0.3529
     31 C          62.2983   83.8003   13.8039 C.ar    1  UNL1        0.1538
     32 C          62.4890   84.7119   12.6280 C.ar    1  UNL1        0.0341
     33 H          62.3099   80.4294   14.6908 H       1  UNL1        0.1425
     34 H          62.0244   81.7801   15.6916 H       1  UNL1        0.1425
     35 O          61.9855   84.3735   15.1543 O.3     1  UNL1       -0.4621
     36 C          63.0111   85.1971   15.8754 C.3     1  UNL1        0.3551
     37 C          62.6537   85.8829   17.1607 C.3     1  UNL1        0.4428
     38 F          62.2963   86.5688   18.4459 F       1  UNL1       -0.1661
     39 F          64.0946   85.8541   17.5767 F       1  UNL1       -0.1661
     40 F          61.2128   85.9117   16.7446 F       1  UNL1       -0.1661
     41 C          64.3941   85.3347   15.3113 C.3     1  UNL1        0.4428
     42 F          65.7771   85.4724   14.7471 F       1  UNL1       -0.1661
     43 F          64.6668   83.8942   15.6283 F       1  UNL1       -0.1661
     44 F          64.1214   86.7752   14.9943 F       1  UNL1       -0.1661
@<TRIPOS>BOND
     1    20    21    1
     2    21    22    1
     3    21    23    1
     4    21    19    1
     5    19    14    1
     6    14    15   ar
     7    15    16   ar
     8    16    13    1
     9    13    11    1
    10     1    11    1
    11     1     2    1
    12     2     3    1
    13     3     4    2
    14     3     5    2
    15     3     6    1
    16     6     7    1
    17     7    24    1
    18    24    25    1
    19    25    26   ar
    20    26    27   ar
    21    27    28    1
    22    27    29   ar
    23    29    30    1
    24    29    31   ar
    25    31    35    1
    26    35    36    1
    27    36    37    1
    28    37    38    1
    29    37    39    1
    30    37    40    1
    31    36    41    1
    32    41    42    1
    33    41    43    1
    34    41    44    1
    35    31    32   ar
    36     7     8    1
    37     8     9    1
    38    16    17   ar
    39    17    18   ar
    40    18    14   ar
    41     8     1    1
    42    32    25   ar
    43    11    12    1
    44    30    33    1
    45    30    34    1
    46     9    10    1
@<TRIPOS>MOLECULE
*****
 44 46 0 0 0
SMALL
GASTEIGER

@<TRIPOS>ATOM
      1 C          64.1698   91.3432   11.7937 C.3     1  UNL1        0.1054
      2 C          65.4795   92.0743   11.8070 C.3     1  UNL1        0.1689
      3 S          66.2304   92.2444   13.0943 S.O2    1  UNL1       -0.0085
      4 O          67.3049   92.6593   14.0551 O.2     1  UNL1       -0.1729
      5 O          67.1624   92.9495   12.1541 O.2     1  UNL1       -0.1729
      6 C          65.6716   91.6834   14.3683 C.3     1  UNL1        0.1536
      7 C          64.3619   90.9523   14.3550 C.3     1  UNL1        0.0562
      8 C          63.6110   90.7822   13.0676 C.3     1  UNL1        0.1285
      9 O          62.3013   90.0511   13.0542 O.3     1  UNL1       -0.3830
     10 H          61.9514   90.0311   12.1498 H       1  UNL1        0.2104
     11 N          63.4189   91.1731   10.5063 N.3     1  UNL1       -0.2901
     12 H          63.5884   92.0133    9.9533 H       1  UNL1        0.1237
     13 C          61.9343   90.9601   10.5265 C.3     1  UNL1        0.1187
     14 C          61.0343   87.3849    9.3126 C.ar    1  UNL1        0.1541
     15 C          61.9543   88.3357   10.0196 C.ar    1  UNL1        0.0550
     16 C          61.3485   89.7061    9.9483 C.ar    1  UNL1        0.1162
     17 N          60.0541   89.6023    9.1974 N.ar    1  UNL1       -0.0804
     18 O          59.8599   88.1677    8.8045 O.2     1  UNL1       -0.3580
     19 C          61.2507   85.9103    9.1435 C.3     1  UNL1        0.0673
     20 C          63.1518   85.2609    8.4625 C.3     1  UNL1        0.0004
     21 C          61.7876   85.3746    7.8494 C.3     1  UNL1        0.0072
     22 C          60.4233   85.4882    7.2364 C.3     1  UNL1        0.0004
     23 C          62.3246   84.8389    6.5554 C.3     1  UNL1        0.0004
     24 C          63.8031   90.3913   15.6289 C.3     1  UNL1        0.0307
     25 C          63.7205   88.9061   15.8218 C.ar    1  UNL1       -0.0167
     26 C          63.0224   88.3436   17.0245 C.ar    1  UNL1        0.0268
     27 C          62.9398   86.8583   17.2173 C.ar    1  UNL1        0.1556
     28 F          62.2418   86.2958   18.4200 F       1  UNL1       -0.2028
     29 C          63.5552   85.9356   16.2075 C.ar    1  UNL1        0.1037
     30 N          63.4726   84.4503   16.4003 N.pl3   1  UNL1       -0.3529
     31 C          64.2532   86.4980   15.0048 C.ar    1  UNL1        0.1538
     32 C          64.3359   87.9833   14.8119 C.ar    1  UNL1        0.0341
     33 H          63.0145   84.0811   17.1897 H       1  UNL1        0.1425
     34 H          63.8765   83.8446   15.7376 H       1  UNL1        0.1425
     35 O          64.8687   85.5752   13.9950 O.3     1  UNL1       -0.4621
     36 C          63.9930   84.7090   13.1388 C.3     1  UNL1        0.3551
     37 C          62.6651   85.2210   12.6649 C.3     1  UNL1        0.4428
     38 F          61.3372   85.7331   12.1911 F       1  UNL1       -0.1661
     39 F          61.9814   84.0629   13.3292 F       1  UNL1       -0.1661
     40 F          63.3488   86.3792   12.0007 F       1  UNL1       -0.1661
     41 C          64.4452   83.3309   12.7566 C.3     1  UNL1        0.4428
     42 F          64.8974   81.9527   12.3743 F       1  UNL1       -0.1661
     43 F          64.3039   83.6868   11.3063 F       1  UNL1       -0.1661
     44 F          64.5865   82.9750   14.2068 F       1  UNL1       -0.1661
@<TRIPOS>BOND
     1    20    21    1
     2    21    22    1
     3    21    23    1
     4    21    19    1
     5    19    14    1
     6    14    15   ar
     7    15    16   ar
     8    16    13    1
     9    13    11    1
    10     1    11    1
    11     1     2    1
    12     2     3    1
    13     3     4    2
    14     3     5    2
    15     3     6    1
    16     6     7    1
    17     7    24    1
    18    24    25    1
    19    25    26   ar
    20    26    27   ar
    21    27    28    1
    22    27    29   ar
    23    29    30    1
    24    29    31   ar
    25    31    35    1
    26    35    36    1
    27    36    37    1
    28    37    38    1
    29    37    39    1
    30    37    40    1
    31    36    41    1
    32    41    42    1
    33    41    43    1
    34    41    44    1
    35    31    32   ar
    36     7     8    1
    37     8     9    1
    38    16    17   ar
    39    17    18   ar
    40    18    14   ar
    41     8     1    1
    42    32    25   ar
    43    11    12    1
    44    30    33    1
    45    30    34    1
    46     9    10    1
@<TRIPOS>MOLECULE
*****
 44 46 0 0 0
SMALL
GASTEIGER

@<TRIPOS>ATOM
      1 C          62.9527   84.2166   14.3533 C.3     1  UNL1        0.1054
      2 C          62.7604   82.7460   14.5772 C.3     1  UNL1        0.1689
      3 S          62.8984   81.7885   13.4309 S.O2    1  UNL1       -0.0085
      4 O          62.9249   80.4969   12.6685 O.2     1  UNL1       -0.1729
      5 O          62.5773   80.8268   14.5364 O.2     1  UNL1       -0.1729
      6 C          63.2288   82.3016   12.0607 C.3     1  UNL1        0.1536
      7 C          63.4211   83.7722   11.8367 C.3     1  UNL1        0.0562
      8 C          63.2830   84.7297   12.9830 C.3     1  UNL1        0.1285
      9 O          63.4753   86.2004   12.7591 O.3     1  UNL1       -0.3830
     10 H          63.3519   86.6739   13.5966 H       1  UNL1        0.2104
     11 N          62.8147   85.1743   15.4996 N.3     1  UNL1       -0.2901
     12 H          61.9950   85.7495   15.3056 H       1  UNL1        0.1237
     13 C          63.9354   86.1148   15.8302 C.3     1  UNL1        0.1187
     14 C          63.6737   89.9207   15.1144 C.ar    1  UNL1        0.1541
     15 C          64.1024   88.5392   14.7169 C.ar    1  UNL1        0.0550
     16 C          63.7011   87.5964   15.8124 C.ar    1  UNL1        0.1162
     17 N          63.0244   88.3950   16.8868 N.ar    1  UNL1       -0.0804
     18 O          63.0075   89.8315   16.4554 O.2     1  UNL1       -0.3580
     19 C          63.8757   91.1717   14.3117 C.3     1  UNL1        0.0673
     20 C          65.7218   91.6225   15.2542 C.3     1  UNL1        0.0004
     21 C          65.2482   91.5424   13.8333 C.3     1  UNL1        0.0072
     22 C          64.7744   91.4622   12.4124 C.3     1  UNL1        0.0004
     23 C          66.6206   91.9131   13.3549 C.3     1  UNL1        0.0004
     24 C          63.7514   84.2853   10.4664 C.3     1  UNL1        0.0307
     25 C          62.6854   84.9272    9.6288 C.ar    1  UNL1       -0.0167
     26 C          62.5545   84.5693    8.1780 C.ar    1  UNL1        0.0268
     27 C          61.4885   85.2112    7.3404 C.ar    1  UNL1        0.1556
     28 F          61.3576   84.8533    5.8896 F       1  UNL1       -0.2028
     29 C          60.5535   86.2111    7.9535 C.ar    1  UNL1        0.1037
     30 N          59.4875   86.8530    7.1158 N.pl3   1  UNL1       -0.3529
     31 C          60.6844   86.5690    9.4043 C.ar    1  UNL1        0.1538
     32 C          61.7504   85.9271   10.2420 C.ar    1  UNL1        0.0341
     33 H          59.4016   86.6180    6.1636 H       1  UNL1        0.1425
     34 H          58.8737   87.5092    7.5182 H       1  UNL1        0.1425
     35 O          59.7493   87.5688   10.0174 O.3     1  UNL1       -0.4621
     36 C          60.2856   88.8548   10.5731 C.3     1  UNL1        0.3551
     37 C          59.4159   89.7188   11.4374 C.3     1  UNL1        0.4428
     38 F          58.5462   90.5829   12.3018 F       1  UNL1       -0.1661
     39 F          59.0818   88.5303   12.2894 F       1  UNL1       -0.1661
     40 F          59.7500   90.9074   10.5855 F       1  UNL1       -0.1661
     41 C          61.6916   89.2767   10.2645 C.3     1  UNL1        0.4428
     42 F          63.0975   89.6985    9.9559 F       1  UNL1       -0.1661
     43 F          62.0914   88.9792   11.6793 F       1  UNL1       -0.1661
     44 F          61.2917   89.5741    8.8497 F       1  UNL1       -0.1661
@<TRIPOS>BOND
     1    20    21    1
     2    21    22    1
     3    21    23    1
     4    21    19    1
     5    19    14    1
     6    14    15   ar
     7    15    16   ar
     8    16    13    1
     9    13    11    1
    10     1    11    1
    11     1     2    1
    12     2     3    1
    13     3     4    2
    14     3     5    2
    15     3     6    1
    16     6     7    1
    17     7    24    1
    18    24    25    1
    19    25    26   ar
    20    26    27   ar
    21    27    28    1
    22    27    29   ar
    23    29    30    1
    24    29    31   ar
    25    31    35    1
    26    35    36    1
    27    36    37    1
    28    37    38    1
    29    37    39    1
    30    37    40    1
    31    36    41    1
    32    41    42    1
    33    41    43    1
    34    41    44    1
    35    31    32   ar
    36     7     8    1
    37     8     9    1
    38    16    17   ar
    39    17    18   ar
    40    18    14   ar
    41     8     1    1
    42    32    25   ar
    43    11    12    1
    44    30    33    1
    45    30    34    1
    46     9    10    1
@<TRIPOS>MOLECULE
*****
 44 46 0 0 0
SMALL
GASTEIGER

@<TRIPOS>ATOM
      1 C          60.3316   88.5468    8.9809 C.3     1  UNL1        0.1054
      2 C          60.7082   89.4960   10.0795 C.3     1  UNL1        0.1689
      3 S          61.7235   89.0898   11.1063 S.O2    1  UNL1       -0.0085
      4 O          62.6258   89.1632   12.3023 O.2     1  UNL1       -0.1729
      5 O          61.3983   90.4707   11.5936 O.2     1  UNL1       -0.1729
      6 C          62.3620   87.7344   11.0344 C.3     1  UNL1        0.1536
      7 C          61.9853   86.7852    9.9358 C.3     1  UNL1        0.0562
      8 C          60.9701   87.1914    8.9090 C.3     1  UNL1        0.1285
      9 O          60.5934   86.2421    7.8103 O.3     1  UNL1       -0.3830
     10 H          59.9301   86.6576    7.2374 H       1  UNL1        0.2104
     11 N          59.3163   88.9529    7.9540 N.3     1  UNL1       -0.2901
     12 H          58.5449   88.2892    8.0241 H       1  UNL1        0.1237
     13 C          59.6999   89.0196    6.5055 C.3     1  UNL1        0.1187
     14 C          59.5916   92.1620    4.2296 C.ar    1  UNL1        0.1541
     15 C          60.3400   91.0220    4.8545 C.ar    1  UNL1        0.0550
     16 C          59.3763   90.2426    5.6994 C.ar    1  UNL1        0.1162
     17 N          58.0324   90.9008    5.5968 N.ar    1  UNL1       -0.0804
     18 O          58.1654   92.0870    4.6884 O.2     1  UNL1       -0.3580
     19 C          60.1680   93.1954    3.3078 C.3     1  UNL1        0.0673
     20 C          59.3243   92.9485    1.3773 C.3     1  UNL1        0.0004
     21 C          60.6959   92.7904    1.9634 C.3     1  UNL1        0.0072
     22 C          62.0675   92.6323    2.5497 C.3     1  UNL1        0.0004
     23 C          61.2237   92.3854    0.6191 C.3     1  UNL1        0.0004
     24 C          62.6239   85.4298    9.8639 C.3     1  UNL1        0.0307
     25 C          62.5798   84.5160   11.0526 C.ar    1  UNL1       -0.0167
     26 C          62.8375   83.0484   10.8804 C.ar    1  UNL1        0.0268
     27 C          62.7935   82.1346   12.0690 C.ar    1  UNL1        0.1556
     28 F          63.0511   80.6669   11.8968 F       1  UNL1       -0.2028
     29 C          62.4917   82.6884   13.4300 C.ar    1  UNL1        0.1037
     30 N          62.4477   81.7745   14.6187 N.pl3   1  UNL1       -0.3529
     31 C          62.2341   84.1560   13.6023 C.ar    1  UNL1        0.1538
     32 C          62.2781   85.0698   12.4136 C.ar    1  UNL1        0.0341
     33 H          62.6168   80.8112   14.5056 H       1  UNL1        0.1425
     34 H          62.2497   82.1380   15.5120 H       1  UNL1        0.1425
     35 O          61.9324   84.7098   14.9633 O.3     1  UNL1       -0.4621
     36 C          63.0251   85.3381   15.7765 C.3     1  UNL1        0.3551
     37 C          62.7174   85.9190   17.1248 C.3     1  UNL1        0.4428
     38 F          62.4096   86.4998   18.4731 F       1  UNL1       -0.1661
     39 F          61.2563   85.9325   16.7854 F       1  UNL1       -0.1661
     40 F          64.1784   85.9054   17.4641 F       1  UNL1       -0.1661
     41 C          64.4256   85.3857   15.2413 C.3     1  UNL1        0.4428
     42 F          65.8260   85.4332   14.7062 F       1  UNL1       -0.1661
     43 F          64.6222   83.9499   15.6283 F       1  UNL1       -0.1661
     44 F          64.2290   86.8215   14.8543 F       1  UNL1       -0.1661
@<TRIPOS>BOND
     1    20    21    1
     2    21    22    1
     3    21    23    1
     4    21    19    1
     5    19    14    1
     6    14    15   ar
     7    15    16   ar
     8    16    13    1
     9    13    11    1
    10     1    11    1
    11     1     2    1
    12     2     3    1
    13     3     4    2
    14     3     5    2
    15     3     6    1
    16     6     7    1
    17     7    24    1
    18    24    25    1
    19    25    26   ar
    20    26    27   ar
    21    27    28    1
    22    27    29   ar
    23    29    30    1
    24    29    31   ar
    25    31    35    1
    26    35    36    1
    27    36    37    1
    28    37    38    1
    29    37    39    1
    30    37    40    1
    31    36    41    1
    32    41    42    1
    33    41    43    1
    34    41    44    1
    35    31    32   ar
    36     7     8    1
    37     8     9    1
    38    16    17   ar
    39    17    18   ar
    40    18    14   ar
    41     8     1    1
    42    32    25   ar
    43    11    12    1
    44    30    33    1
    45    30    34    1
    46     9    10    1
@<TRIPOS>MOLECULE
*****
 44 46 0 0 0
SMALL
GASTEIGER

@<TRIPOS>ATOM
      1 C          62.1778   87.4226   10.7675 C.3     1  UNL1        0.1054
      2 C          61.8781   88.6360    9.9383 C.3     1  UNL1        0.1689
      3 S          62.2923   89.9947   10.4202 S.O2    1  UNL1       -0.0085
      4 O          62.4814   91.4824   10.4504 O.2     1  UNL1       -0.1729
      5 O          61.6440   90.3662    9.1195 O.2     1  UNL1       -0.1729
      6 C          63.0062   90.1400   11.7314 C.3     1  UNL1        0.1536
      7 C          63.3059   88.9265   12.5606 C.3     1  UNL1        0.0562
      8 C          62.8917   87.5678   12.0787 C.3     1  UNL1        0.1285
      9 O          63.1914   86.3543   12.9080 O.3     1  UNL1       -0.3830
     10 H          62.8589   85.5633   12.4555 H       1  UNL1        0.2104
     11 N          61.7636   86.0638   10.2856 N.3     1  UNL1       -0.2901
     12 H          61.4021   85.5614   11.0963 H       1  UNL1        0.1237
     13 C          62.7673   85.1624    9.6298 C.3     1  UNL1        0.1187
     14 C          63.7400   82.3211   12.0888 C.ar    1  UNL1        0.1541
     15 C          62.8285   83.4365   11.6700 C.ar    1  UNL1        0.0550
     16 C          63.3675   84.0231   10.3990 C.ar    1  UNL1        0.1162
     17 N          64.6120   83.2703   10.0322 N.ar    1  UNL1       -0.0804
     18 O          64.8423   82.2185   11.0765 O.2     1  UNL1       -0.3580
     19 C          63.5777   81.4598   13.3060 C.3     1  UNL1        0.0673
     20 C          62.2964   79.8129   12.9241 C.3     1  UNL1        0.0004
     21 C          62.2069   81.0546   13.7608 C.3     1  UNL1        0.0072
     22 C          62.1176   82.2963   14.5975 C.3     1  UNL1        0.0004
     23 C          60.8362   80.6494   14.2155 C.3     1  UNL1        0.0004
     24 C          64.0198   89.0718   13.8718 C.3     1  UNL1        0.0307
     25 C          64.7993   90.3188   14.1673 C.ar    1  UNL1       -0.0167
     26 C          64.5762   91.0554   15.4548 C.ar    1  UNL1        0.0268
     27 C          65.3557   92.3024   15.7502 C.ar    1  UNL1        0.1556
     28 F          65.1326   93.0390   17.0378 F       1  UNL1       -0.2028
     29 C          66.3583   92.8129   14.7582 C.ar    1  UNL1        0.1037
     30 N          67.1378   94.0600   15.0537 N.pl3   1  UNL1       -0.3529
     31 C          66.5814   92.0764   13.4707 C.ar    1  UNL1        0.1538
     32 C          65.8019   90.8293   13.1752 C.ar    1  UNL1        0.0341
     33 H          66.9913   94.5434   15.8987 H       1  UNL1        0.1425
     34 H          67.7958   94.3951   14.4026 H       1  UNL1        0.1425
     35 O          67.5840   92.5869   12.4786 O.3     1  UNL1       -0.4621
     36 C          67.1509   92.9324   11.0847 C.3     1  UNL1        0.3551
     37 C          65.9849   93.8508   10.8675 C.3     1  UNL1        0.4428
     38 F          64.8190   94.7692   10.6504 F       1  UNL1       -0.1661
     39 F          65.1628   92.6929   10.3844 F       1  UNL1       -0.1661
     40 F          66.8070   95.0087   11.3507 F       1  UNL1       -0.1661
     41 C          67.8837   92.3595    9.9079 C.3     1  UNL1        0.4428
     42 F          68.6164   91.7867    8.7311 F       1  UNL1       -0.1661
     43 F          67.3693   93.4737    9.0453 F       1  UNL1       -0.1661
     44 F          68.3980   91.2454   10.7705 F       1  UNL1       -0.1661
@<TRIPOS>BOND
     1    20    21    1
     2    21    22    1
     3    21    23    1
     4    21    19    1
     5    19    14    1
     6    14    15   ar
     7    15    16   ar
     8    16    13    1
     9    13    11    1
    10     1    11    1
    11     1     2    1
    12     2     3    1
    13     3     4    2
    14     3     5    2
    15     3     6    1
    16     6     7    1
    17     7    24    1
    18    24    25    1
    19    25    26   ar
    20    26    27   ar
    21    27    28    1
    22    27    29   ar
    23    29    30    1
    24    29    31   ar
    25    31    35    1
    26    35    36    1
    27    36    37    1
    28    37    38    1
    29    37    39    1
    30    37    40    1
    31    36    41    1
    32    41    42    1
    33    41    43    1
    34    41    44    1
    35    31    32   ar
    36     7     8    1
    37     8     9    1
    38    16    17   ar
    39    17    18   ar
    40    18    14   ar
    41     8     1    1
    42    32    25   ar
    43    11    12    1
    44    30    33    1
    45    30    34    1
    46     9    10    1
@<TRIPOS>MOLECULE
*****
 44 46 0 0 0
SMALL
GASTEIGER

@<TRIPOS>ATOM
      1 C          60.5012   86.3710    8.4048 C.3     1  UNL1        0.1054
      2 C          60.6212   85.7892    7.0275 C.3     1  UNL1        0.1689
      3 S          61.7445   84.8485    6.7061 S.O2    1  UNL1       -0.0085
      4 O          62.6256   83.9205    5.9235 O.2     1  UNL1       -0.1729
      5 O          61.0473   84.8850    5.3784 O.2     1  UNL1       -0.1729
      6 C          62.7477   84.4897    7.7619 C.3     1  UNL1        0.1536
      7 C          62.6276   85.0715    9.1392 C.3     1  UNL1        0.0562
      8 C          61.5044   86.0122    9.4607 C.3     1  UNL1        0.1285
      9 O          61.3843   86.5941   10.8380 O.3     1  UNL1       -0.3830
     10 H          60.6099   87.1770   10.8764 H       1  UNL1        0.2104
     11 N          59.3779   87.3118    8.7263 N.3     1  UNL1       -0.2901
     12 H          58.6180   87.0942    8.0817 H       1  UNL1        0.1237
     13 C          59.5967   88.7939    8.6532 C.3     1  UNL1        0.1187
     14 C          62.1939   90.4402   11.0218 C.ar    1  UNL1        0.1541
     15 C          61.8541   89.6975    9.7636 C.ar    1  UNL1        0.0550
     16 C          60.3685   89.4923    9.7334 C.ar    1  UNL1        0.1162
     17 N          59.7901   90.1081   10.9729 N.ar    1  UNL1       -0.0804
     18 O          60.9183   90.6939   11.7692 O.2     1  UNL1       -0.3580
     19 C          63.5680   90.8561   11.4564 C.3     1  UNL1        0.0673
     20 C          63.4320   89.1500   12.7096 C.3     1  UNL1        0.0004
     21 C          64.0574   90.5079   12.8309 C.3     1  UNL1        0.0072
     22 C          64.6828   91.8659   12.9521 C.3     1  UNL1        0.0004
     23 C          64.5468   90.1597   14.2053 C.3     1  UNL1        0.0004
     24 C          63.6309   84.7127   10.1951 C.3     1  UNL1        0.0307
     25 C          63.2230   83.8565   11.3571 C.ar    1  UNL1       -0.0167
     26 C          63.1972   82.3633   11.2161 C.ar    1  UNL1        0.0268
     27 C          62.7893   81.5071   12.3781 C.ar    1  UNL1        0.1556
     28 F          62.7636   80.0139   12.2371 F       1  UNL1       -0.2028
     29 C          62.4071   82.1440   13.6813 C.ar    1  UNL1        0.1037
     30 N          61.9992   81.2877   14.8434 N.pl3   1  UNL1       -0.3529
     31 C          62.4328   83.6370   13.8224 C.ar    1  UNL1        0.1538
     32 C          62.8408   84.4933   12.6603 C.ar    1  UNL1        0.0341
     33 H          61.9823   80.3077   14.7508 H       1  UNL1        0.1425
     34 H          61.7484   81.7056   15.6988 H       1  UNL1        0.1425
     35 O          62.0506   84.2739   15.1256 O.3     1  UNL1       -0.4621
     36 C          63.0265   85.1596   15.8423 C.3     1  UNL1        0.3551
     37 C          64.4073   85.3554   15.2899 C.3     1  UNL1        0.4428
     38 F          65.7880   85.5512   14.7375 F       1  UNL1       -0.1661
     39 F          64.0919   86.7953   15.0121 F       1  UNL1       -0.1661
     40 F          64.7226   83.9155   15.5677 F       1  UNL1       -0.1661
     41 C          62.6215   85.8493   17.1112 C.3     1  UNL1        0.4428
     42 F          62.2166   86.5390   18.3801 F       1  UNL1       -0.1661
     43 F          61.1940   85.8583   16.6507 F       1  UNL1       -0.1661
     44 F          64.0490   85.8403   17.5717 F       1  UNL1       -0.1661
@<TRIPOS>BOND
     1    20    21    1
     2    21    22    1
     3    21    23    1
     4    21    19    1
     5    19    14    1
     6    14    15   ar
     7    15    16   ar
     8    16    13    1
     9    13    11    1
    10     1    11    1
    11     1     2    1
    12     2     3    1
    13     3     4    2
    14     3     5    2
    15     3     6    1
    16     6     7    1
    17     7    24    1
    18    24    25    1
    19    25    26   ar
    20    26    27   ar
    21    27    28    1
    22    27    29   ar
    23    29    30    1
    24    29    31   ar
    25    31    35    1
    26    35    36    1
    27    36    37    1
    28    37    38    1
    29    37    39    1
    30    37    40    1
    31    36    41    1
    32    41    42    1
    33    41    43    1
    34    41    44    1
    35    31    32   ar
    36     7     8    1
    37     8     9    1
    38    16    17   ar
    39    17    18   ar
    40    18    14   ar
    41     8     1    1
    42    32    25   ar
    43    11    12    1
    44    30    33    1
    45    30    34    1
    46     9    10    1
@<TRIPOS>MOLECULE
*****
 44 46 0 0 0
SMALL
GASTEIGER

@<TRIPOS>ATOM
      1 C          62.7836   84.3896   13.9135 C.3     1  UNL1        0.1054
      2 C          62.6385   82.9019   14.0375 C.3     1  UNL1        0.1689
      3 S          62.6717   82.0402   12.8101 S.O2    1  UNL1       -0.0085
      4 O          62.6390   80.8131   11.9481 O.2     1  UNL1       -0.1729
      5 O          62.4819   80.9879   13.8620 O.2     1  UNL1       -0.1729
      6 C          62.8500   82.6664   11.4588 C.3     1  UNL1        0.1536
      7 C          62.9952   84.1542   11.3348 C.3     1  UNL1        0.0562
      8 C          62.9620   85.0158   12.5621 C.3     1  UNL1        0.1285
      9 O          63.1072   86.5036   12.4382 O.3     1  UNL1       -0.3830
     10 H          63.0640   86.9072   13.3192 H       1  UNL1        0.2104
     11 N          62.7504   85.2513   15.1409 N.3     1  UNL1       -0.2901
     12 H          61.9445   85.8692   15.0452 H       1  UNL1        0.1237
     13 C          63.9250   86.1209   15.4788 C.3     1  UNL1        0.1187
     14 C          63.9706   90.0013   15.4001 C.ar    1  UNL1        0.1541
     15 C          64.4698   88.6749   14.9084 C.ar    1  UNL1        0.0550
     16 C          63.7381   87.5988   15.6546 C.ar    1  UNL1        0.1162
     17 N          62.7868   88.2601   16.6073 N.ar    1  UNL1       -0.0804
     18 O          62.9304   89.7449   16.4501 O.2     1  UNL1       -0.3580
     19 C          64.4308   91.3477   14.9252 C.3     1  UNL1        0.0673
     20 C          66.2569   91.2100   13.8546 C.3     1  UNL1        0.0004
     21 C          65.8425   91.7888   15.1748 C.3     1  UNL1        0.0072
     22 C          65.4281   92.3676   16.4952 C.3     1  UNL1        0.0004
     23 C          67.2542   92.2299   15.4245 C.3     1  UNL1        0.0004
     24 C          63.1736   84.7803    9.9834 C.3     1  UNL1        0.0307
     25 C          62.2122   85.8299    9.5104 C.ar    1  UNL1       -0.0167
     26 C          60.9371   85.4273    8.8304 C.ar    1  UNL1        0.0268
     27 C          59.9756   86.4770    8.3573 C.ar    1  UNL1        0.1556
     28 F          58.7006   86.0744    7.6774 F       1  UNL1       -0.2028
     29 C          60.2892   87.9292    8.5642 C.ar    1  UNL1        0.1037
     30 N          59.3276   88.9788    8.0910 N.pl3   1  UNL1       -0.3529
     31 C          61.5641   88.3318    9.2441 C.ar    1  UNL1        0.1538
     32 C          62.5257   87.2821    9.7172 C.ar    1  UNL1        0.0341
     33 H          58.4908   88.7146    7.6448 H       1  UNL1        0.1425
     34 H          59.5334   89.9320    8.2268 H       1  UNL1        0.1425
     35 O          61.8776   89.7840    9.4509 O.3     1  UNL1       -0.4621
     36 C          61.9904   90.3363   10.8410 C.3     1  UNL1        0.3551
     37 C          60.9167   90.0538   11.8496 C.3     1  UNL1        0.4428
     38 F          59.8430   89.7713   12.8583 F       1  UNL1       -0.1661
     39 F          59.9797   90.9586   11.1057 F       1  UNL1       -0.1661
     40 F          61.8537   89.1490   12.5936 F       1  UNL1       -0.1661
     41 C          63.1768   91.1712   11.2223 C.3     1  UNL1        0.4428
     42 F          64.3631   92.0061   11.6037 F       1  UNL1       -0.1661
     43 F          62.6146   91.3395   12.6028 F       1  UNL1       -0.1661
     44 F          63.7389   91.0030    9.8419 F       1  UNL1       -0.1661
@<TRIPOS>BOND
     1    20    21    1
     2    21    22    1
     3    21    23    1
     4    21    19    1
     5    19    14    1
     6    14    15   ar
     7    15    16   ar
     8    16    13    1
     9    13    11    1
    10     1    11    1
    11     1     2    1
    12     2     3    1
    13     3     4    2
    14     3     5    2
    15     3     6    1
    16     6     7    1
    17     7    24    1
    18    24    25    1
    19    25    26   ar
    20    26    27   ar
    21    27    28    1
    22    27    29   ar
    23    29    30    1
    24    29    31   ar
    25    31    35    1
    26    35    36    1
    27    36    37    1
    28    37    38    1
    29    37    39    1
    30    37    40    1
    31    36    41    1
    32    41    42    1
    33    41    43    1
    34    41    44    1
    35    31    32   ar
    36     7     8    1
    37     8     9    1
    38    16    17   ar
    39    17    18   ar
    40    18    14   ar
    41     8     1    1
    42    32    25   ar
    43    11    12    1
    44    30    33    1
    45    30    34    1
    46     9    10    1
@<TRIPOS>MOLECULE
*****
 44 46 0 0 0
SMALL
GASTEIGER

@<TRIPOS>ATOM
      1 C          63.0152   91.0161   11.3510 C.3     1  UNL1        0.1054
      2 C          64.2207   91.7811   10.8914 C.3     1  UNL1        0.1689
      3 S          65.3242   92.0934   11.8582 S.O2    1  UNL1       -0.0085
      4 O          66.6193   92.6274   12.3943 O.2     1  UNL1       -0.1729
      5 O          65.8762   92.7315   10.6180 O.2     1  UNL1       -0.1729
      6 C          65.2221   91.6408   13.2846 C.3     1  UNL1        0.1536
      7 C          64.0165   90.8758   13.7443 C.3     1  UNL1        0.0562
      8 C          62.9130   90.5634   12.7774 C.3     1  UNL1        0.1285
      9 O          61.7074   89.7983   13.2370 O.3     1  UNL1       -0.3830
     10 H          61.0950   89.6828   12.4937 H       1  UNL1        0.2104
     11 N          61.9116   90.7037   10.3842 N.3     1  UNL1       -0.2901
     12 H          61.0771   91.1805   10.7258 H       1  UNL1        0.1237
     13 C          61.5212   89.2785   10.1267 C.3     1  UNL1        0.1187
     14 C          59.2141   89.1492    7.0080 C.ar    1  UNL1        0.1541
     15 C          59.9842   89.9228    8.0368 C.ar    1  UNL1        0.0550
     16 C          60.6498   88.9397    8.9536 C.ar    1  UNL1        0.1162
     17 N          60.2911   87.5585    8.4915 N.ar    1  UNL1       -0.0804
     18 O          59.4038   87.6879    7.2890 O.2     1  UNL1       -0.3580
     19 C          58.3977   89.7340    5.8938 C.3     1  UNL1        0.0673
     20 C          57.4134   91.4424    5.1112 C.3     1  UNL1        0.0004
     21 C          58.8422   90.9997    5.2227 C.3     1  UNL1        0.0072
     22 C          60.2710   90.5570    5.3343 C.3     1  UNL1        0.0004
     23 C          59.2867   92.2654    4.5517 C.3     1  UNL1        0.0004
     24 C          63.9144   90.4231   15.1707 C.3     1  UNL1        0.0307
     25 C          63.7929   88.9619   15.4870 C.ar    1  UNL1       -0.0167
     26 C          63.1554   88.5231   16.7720 C.ar    1  UNL1        0.0268
     27 C          63.0339   87.0619   17.0883 C.ar    1  UNL1        0.1556
     28 F          62.3964   86.6231   18.3733 F       1  UNL1       -0.2028
     29 C          63.5499   86.0394   16.1196 C.ar    1  UNL1        0.1037
     30 N          63.4284   84.5782   16.4360 N.pl3   1  UNL1       -0.3529
     31 C          64.1873   86.4781   14.8347 C.ar    1  UNL1        0.1538
     32 C          64.3088   87.9394   14.5183 C.ar    1  UNL1        0.0341
     33 H          63.0100   84.2902   17.2794 H       1  UNL1        0.1425
     34 H          63.7670   83.9070   15.8002 H       1  UNL1        0.1425
     35 O          64.7033   85.4556   13.8660 O.3     1  UNL1       -0.4621
     36 C          63.7438   84.5656   13.1330 C.3     1  UNL1        0.3551
     37 C          62.5462   85.1559   12.4492 C.3     1  UNL1        0.4428
     38 F          61.3487   85.7461   11.7654 F       1  UNL1       -0.1661
     39 F          61.7074   84.8506   13.6547 F       1  UNL1       -0.1661
     40 F          63.3850   85.4611   11.2437 F       1  UNL1       -0.1661
     41 C          63.9818   83.0855   13.0837 C.3     1  UNL1        0.4428
     42 F          64.2198   81.6054   13.0345 F       1  UNL1       -0.1661
     43 F          62.8419   82.9342   12.1206 F       1  UNL1       -0.1661
     44 F          65.1217   83.2368   14.0468 F       1  UNL1       -0.1661
@<TRIPOS>BOND
     1    20    21    1
     2    21    22    1
     3    21    23    1
     4    21    19    1
     5    19    14    1
     6    14    15   ar
     7    15    16   ar
     8    16    13    1
     9    13    11    1
    10     1    11    1
    11     1     2    1
    12     2     3    1
    13     3     4    2
    14     3     5    2
    15     3     6    1
    16     6     7    1
    17     7    24    1
    18    24    25    1
    19    25    26   ar
    20    26    27   ar
    21    27    28    1
    22    27    29   ar
    23    29    30    1
    24    29    31   ar
    25    31    35    1
    26    35    36    1
    27    36    37    1
    28    37    38    1
    29    37    39    1
    30    37    40    1
    31    36    41    1
    32    41    42    1
    33    41    43    1
    34    41    44    1
    35    31    32   ar
    36     7     8    1
    37     8     9    1
    38    16    17   ar
    39    17    18   ar
    40    18    14   ar
    41     8     1    1
    42    32    25   ar
    43    11    12    1
    44    30    33    1
    45    30    34    1
    46     9    10    1
