@<TRIPOS>MOLECULE
*****
 34 36 0 0 0
SMALL
GASTEIGER

@<TRIPOS>ATOM
      1 C          59.4198   89.0124    7.3976 C.ar    1  UNL1       -0.0024
      2 C          59.0769   87.5526    7.3624 C.ar    1  UNL1       -0.0026
      3 C          59.5088   86.6535    8.4828 C.ar    1  UNL1       -0.0001
      4 C          60.2835   87.2143    9.6383 C.ar    1  UNL1        0.0045
      5 C          60.6264   88.6743    9.6735 C.ar    1  UNL1        0.0534
      6 C          60.1945   89.5733    8.5531 C.ar    1  UNL1        0.0019
      7 C          61.4011   89.2351   10.8290 C.2     1  UNL1        0.2495
      8 O          60.7527   89.3620   12.1756 O.2     1  UNL1       -0.2698
      9 N          62.8242   89.6691   10.6378 N.am    1  UNL1       -0.2804
     10 H          63.2497   89.5858    9.7540 H       1  UNL1        0.1552
     11 C          63.5989   90.2300   11.7934 C.ar    1  UNL1        0.0505
     12 C          63.7543   89.4286   13.0518 C.ar    1  UNL1        0.0144
     13 C          64.5290   89.9894   14.2073 C.ar    1  UNL1       -0.0016
     14 C          65.1483   91.3517   14.1044 C.ar    1  UNL1       -0.0061
     15 C          64.9930   92.1531   12.8460 C.ar    1  UNL1       -0.0016
     16 C          64.2183   91.5923   11.6905 C.ar    1  UNL1        0.0144
     17 C          65.9230   91.9125   15.2600 C.3     1  UNL1        0.0992
     18 N          67.3225   92.4111   15.0533 N.3     1  UNL1       -0.2665
     19 C          67.8753   93.4846   15.9432 C.3     1  UNL1        0.0899
     20 C          68.1691   91.8363   13.9566 C.3     1  UNL1        0.0899
     21 C          58.9879   89.9115    6.2772 C.3     1  UNL1        0.1166
     22 C          59.6422   91.6628    4.4731 C.2     1  UNL1        0.2461
     23 O          58.2488   92.2172    4.5061 O.2     1  UNL1       -0.2701
     24 N          60.0117   90.5099    5.3587 N.am    1  UNL1       -0.2969
     25 H          60.9262   90.1461    5.3370 H       1  UNL1        0.1501
     26 C          62.7136   93.4583    1.7176 C.ar    1  UNL1        0.1492
     27 C          63.0712   92.2788    2.5725 C.ar    1  UNL1        0.0379
     28 C          62.0474   91.6803    3.4910 C.ar    1  UNL1        0.0077
     29 C          60.6660   92.2613    3.5546 C.ar    1  UNL1        0.0544
     30 C          60.3084   93.4408    2.6997 C.ar    1  UNL1        0.0190
     31 C          61.3322   94.0393    1.7812 C.ar    1  UNL1        0.0917
     32 CL         60.9745   95.2188    0.9263 Cl      1  UNL1       -0.0791
     33 C          65.1267   93.4930    0.7556 C.3     1  UNL1        0.2525
     34 O          63.7374   94.0568    0.7992 O.3     1  UNL1       -0.4706
@<TRIPOS>BOND
     1    33    34    1
     2    34    26    1
     3    26    27   ar
     4    27    28   ar
     5    28    29   ar
     6    29    22    1
     7    22    23    2
     8    22    24   am
     9    24    21    1
    10    21     1    1
    11     1     2   ar
    12     2     3   ar
    13     3     4   ar
    14     4     5   ar
    15     5     7    1
    16     7     8    2
    17     7     9   am
    18     9    11    1
    19    11    12   ar
    20    12    13   ar
    21    13    14   ar
    22    14    17    1
    23    17    18    1
    24    18    19    1
    25    18    20    1
    26    14    15   ar
    27    15    16   ar
    28     5     6   ar
    29    29    30   ar
    30    30    31   ar
    31    31    32    1
    32    31    26   ar
    33     6     1   ar
    34    16    11   ar
    35    24    25    1
    36     9    10    1
@<TRIPOS>MOLECULE
*****
 34 36 0 0 0
SMALL
GASTEIGER

@<TRIPOS>ATOM
      1 C          64.3763   83.6361   12.7648 C.ar    1  UNL1       -0.0024
      2 C          64.5769   82.2142   12.3313 C.ar    1  UNL1       -0.0026
      3 C          64.0880   81.7640   10.9865 C.ar    1  UNL1       -0.0001
      4 C          63.3986   82.7358   10.0753 C.ar    1  UNL1        0.0045
      5 C          63.1980   84.1578   10.5089 C.ar    1  UNL1        0.0534
      6 C          63.6869   84.6079   11.8536 C.ar    1  UNL1        0.0019
      7 C          62.5086   85.1296    9.5977 C.2     1  UNL1        0.2495
      8 O          63.0238   85.3478    8.2059 O.2     1  UNL1       -0.2698
      9 N          61.3039   85.8832   10.0782 N.am    1  UNL1       -0.2804
     10 H          60.9658   85.7400   10.9917 H       1  UNL1        0.1552
     11 C          60.6145   86.8550    9.1670 C.ar    1  UNL1        0.0505
     12 C          60.7663   88.3303    9.3910 C.ar    1  UNL1        0.0144
     13 C          60.0769   89.3021    8.4798 C.ar    1  UNL1       -0.0016
     14 C          59.2356   88.7985    7.3446 C.ar    1  UNL1       -0.0061
     15 C          59.0838   87.3231    7.1206 C.ar    1  UNL1       -0.0016
     16 C          59.7732   86.3513    8.0318 C.ar    1  UNL1        0.0144
     17 C          58.5462   89.7703    6.4334 C.3     1  UNL1        0.0992
     18 N          59.3548   90.6696    5.5460 N.3     1  UNL1       -0.2665
     19 C          60.8131   90.3944    5.3282 C.3     1  UNL1        0.0899
     20 C          58.7050   91.8441    4.8765 C.3     1  UNL1        0.0899
     21 C          64.8652   84.0863   14.1096 C.3     1  UNL1        0.1166
     22 C          63.7035   86.1702   15.1379 C.2     1  UNL1        0.2461
     23 O          62.5077   85.3331   15.4833 O.2     1  UNL1       -0.2701
     24 N          64.8822   85.5468   14.4511 N.am    1  UNL1       -0.2969
     25 H          65.6671   86.0962   14.2244 H       1  UNL1        0.1501
     26 C          63.7545   90.5518   16.1623 C.ar    1  UNL1        0.1492
     27 C          63.1257   89.5685   17.1045 C.ar    1  UNL1        0.0379
     28 C          63.1087   88.1080   16.7630 C.ar    1  UNL1        0.0077
     29 C          63.7205   87.6307   15.4794 C.ar    1  UNL1        0.0544
     30 C          64.3493   88.6140   14.5372 C.ar    1  UNL1        0.0190
     31 C          64.3664   90.0745   14.8787 C.ar    1  UNL1        0.0917
     32 CL         64.9953   91.0577   13.9364 Cl      1  UNL1       -0.0791
     33 C          65.0630   92.6821   16.8689 C.3     1  UNL1        0.2525
     34 O          63.7716   92.0123   16.5038 O.3     1  UNL1       -0.4706
@<TRIPOS>BOND
     1    33    34    1
     2    34    26    1
     3    26    27   ar
     4    27    28   ar
     5    28    29   ar
     6    29    22    1
     7    22    23    2
     8    22    24   am
     9    24    21    1
    10    21     1    1
    11     1     2   ar
    12     2     3   ar
    13     3     4   ar
    14     4     5   ar
    15     5     7    1
    16     7     8    2
    17     7     9   am
    18     9    11    1
    19    11    12   ar
    20    12    13   ar
    21    13    14   ar
    22    14    17    1
    23    17    18    1
    24    18    19    1
    25    18    20    1
    26    14    15   ar
    27    15    16   ar
    28     5     6   ar
    29    29    30   ar
    30    30    31   ar
    31    31    32    1
    32    31    26   ar
    33     6     1   ar
    34    16    11   ar
    35    24    25    1
    36     9    10    1
@<TRIPOS>MOLECULE
*****
 34 36 0 0 0
SMALL
GASTEIGER

@<TRIPOS>ATOM
      1 C          59.8854   88.9290   10.0277 C.ar    1  UNL1       -0.0024
      2 C          59.8218   87.4356    9.9026 C.ar    1  UNL1       -0.0026
      3 C          59.7096   86.8005    8.5482 C.ar    1  UNL1       -0.0001
      4 C          59.6611   87.6590    7.3191 C.ar    1  UNL1        0.0045
      5 C          59.7247   89.1524    7.4443 C.ar    1  UNL1        0.0534
      6 C          59.8369   89.7874    8.7986 C.ar    1  UNL1        0.0019
      7 C          59.6762   90.0108    6.2152 C.2     1  UNL1        0.2495
      8 O          58.3614   90.3001    5.5538 O.2     1  UNL1       -0.2698
      9 N          60.9426   90.5800    5.6474 N.am    1  UNL1       -0.2804
     10 H          61.8056   90.3902    6.0815 H       1  UNL1        0.1552
     11 C          60.8941   91.4385    4.4183 C.ar    1  UNL1        0.0505
     12 C          62.0877   91.5210    3.5136 C.ar    1  UNL1        0.0144
     13 C          62.0391   92.3794    2.2844 C.ar    1  UNL1       -0.0016
     14 C          60.7971   93.1553    1.9600 C.ar    1  UNL1       -0.0061
     15 C          59.6035   93.0728    2.8648 C.ar    1  UNL1       -0.0016
     16 C          59.6520   92.2144    4.0939 C.ar    1  UNL1        0.0144
     17 C          60.7486   94.0137    0.7309 C.3     1  UNL1        0.0992
     18 N          60.6387   93.3787   -0.6236 N.3     1  UNL1       -0.2665
     19 C          59.3953   92.6301   -1.0023 C.3     1  UNL1        0.0899
     20 C          61.7723   93.4922   -1.5992 C.3     1  UNL1        0.0899
     21 C          59.9975   89.5640   11.3821 C.3     1  UNL1        0.1166
     22 C          62.4876   89.7402   12.1020 C.2     1  UNL1        0.2461
     23 O          62.5815   88.2438   12.1433 O.2     1  UNL1       -0.2701
     24 N          61.1956   90.4004   11.7214 N.am    1  UNL1       -0.2969
     25 H          61.1339   91.3825   11.6943 H       1  UNL1        0.1501
     26 C          66.0818   92.2493   13.1199 C.ar    1  UNL1        0.1492
     27 C          65.5877   91.2181   14.0907 C.ar    1  UNL1        0.0379
     28 C          64.3896   90.3818   13.7514 C.ar    1  UNL1        0.0077
     29 C          63.6857   90.5766   12.4413 C.ar    1  UNL1        0.0544
     30 C          64.1798   91.6077   11.4705 C.ar    1  UNL1        0.0190
     31 C          65.3779   92.4441   11.8098 C.ar    1  UNL1        0.0917
     32 CL         65.8720   93.4753   10.8389 Cl      1  UNL1       -0.0791
     33 C          67.5769   93.4250   14.8898 C.3     1  UNL1        0.2525
     34 O          67.2799   93.0856   13.4592 O.3     1  UNL1       -0.4706
@<TRIPOS>BOND
     1    33    34    1
     2    34    26    1
     3    26    27   ar
     4    27    28   ar
     5    28    29   ar
     6    29    22    1
     7    22    23    2
     8    22    24   am
     9    24    21    1
    10    21     1    1
    11     1     2   ar
    12     2     3   ar
    13     3     4   ar
    14     4     5   ar
    15     5     7    1
    16     7     8    2
    17     7     9   am
    18     9    11    1
    19    11    12   ar
    20    12    13   ar
    21    13    14   ar
    22    14    17    1
    23    17    18    1
    24    18    19    1
    25    18    20    1
    26    14    15   ar
    27    15    16   ar
    28     5     6   ar
    29    29    30   ar
    30    30    31   ar
    31    31    32    1
    32    31    26   ar
    33     6     1   ar
    34    16    11   ar
    35    24    25    1
    36     9    10    1
@<TRIPOS>MOLECULE
*****
 34 36 0 0 0
SMALL
GASTEIGER

@<TRIPOS>ATOM
      1 C          63.8974   85.8315   14.2009 C.ar    1  UNL1       -0.0024
      2 C          63.8408   84.3549   14.4582 C.ar    1  UNL1       -0.0026
      3 C          63.1714   83.4465   13.4698 C.ar    1  UNL1       -0.0001
      4 C          62.5586   84.0149   12.2242 C.ar    1  UNL1        0.0045
      5 C          62.6153   85.4916   11.9670 C.ar    1  UNL1        0.0534
      6 C          63.2846   86.3999   12.9553 C.ar    1  UNL1        0.0019
      7 C          62.0025   86.0600   10.7214 C.2     1  UNL1        0.2495
      8 O          62.3491   85.4790    9.3826 O.2     1  UNL1       -0.2698
      9 N          61.0431   87.2094   10.8146 N.am    1  UNL1       -0.2804
     10 H          60.8157   87.5907   11.6933 H       1  UNL1        0.1552
     11 C          60.4304   87.7777    9.5690 C.ar    1  UNL1        0.0505
     12 C          60.6052   89.2314    9.2432 C.ar    1  UNL1        0.0144
     13 C          59.9924   89.7997    7.9976 C.ar    1  UNL1       -0.0016
     14 C          59.2049   88.9144    7.0779 C.ar    1  UNL1       -0.0061
     15 C          59.0300   87.4607    7.4037 C.ar    1  UNL1       -0.0016
     16 C          59.6428   86.8923    8.6493 C.ar    1  UNL1        0.0144
     17 C          58.5921   89.4828    5.8323 C.3     1  UNL1        0.0992
     18 N          59.0924   90.7830    5.2762 N.3     1  UNL1       -0.2665
     19 C          60.5539   90.9638    4.9909 C.3     1  UNL1        0.0899
     20 C          58.1313   91.9022    5.0055 C.3     1  UNL1        0.0899
     21 C          64.5668   86.7399   15.1893 C.3     1  UNL1        0.1166
     22 C          64.3217   89.2785   14.6937 C.2     1  UNL1        0.2461
     23 O          62.8833   89.2218   15.1150 O.2     1  UNL1       -0.2701
     24 N          65.1635   88.0375   14.7308 N.am    1  UNL1       -0.2969
     25 H          66.1076   88.0747   14.4543 H       1  UNL1        0.1501
     26 C          66.1118   93.1713   13.3183 C.ar    1  UNL1        0.1492
     27 C          65.1561   92.4302   12.4309 C.ar    1  UNL1        0.0379
     28 C          64.5594   91.1326   12.8894 C.ar    1  UNL1        0.0077
     29 C          64.9184   90.5761   14.2352 C.ar    1  UNL1        0.0544
     30 C          65.8742   91.3171   15.1226 C.ar    1  UNL1        0.0190
     31 C          66.4709   92.6147   14.6641 C.ar    1  UNL1        0.0917
     32 CL         67.4266   93.3557   15.5515 Cl      1  UNL1       -0.0791
     33 C          66.2681   95.0801   11.5628 C.3     1  UNL1        0.2525
     34 O          66.7085   94.4688   12.8598 O.3     1  UNL1       -0.4706
@<TRIPOS>BOND
     1    33    34    1
     2    34    26    1
     3    26    27   ar
     4    27    28   ar
     5    28    29   ar
     6    29    22    1
     7    22    23    2
     8    22    24   am
     9    24    21    1
    10    21     1    1
    11     1     2   ar
    12     2     3   ar
    13     3     4   ar
    14     4     5   ar
    15     5     7    1
    16     7     8    2
    17     7     9   am
    18     9    11    1
    19    11    12   ar
    20    12    13   ar
    21    13    14   ar
    22    14    17    1
    23    17    18    1
    24    18    19    1
    25    18    20    1
    26    14    15   ar
    27    15    16   ar
    28     5     6   ar
    29    29    30   ar
    30    30    31   ar
    31    31    32    1
    32    31    26   ar
    33     6     1   ar
    34    16    11   ar
    35    24    25    1
    36     9    10    1
@<TRIPOS>MOLECULE
*****
 34 36 0 0 0
SMALL
GASTEIGER

@<TRIPOS>ATOM
      1 C          59.9272   88.7195    9.7925 C.ar    1  UNL1       -0.0024
      2 C          59.5521   87.2772    9.6221 C.ar    1  UNL1       -0.0026
      3 C          59.1956   86.7504    8.2636 C.ar    1  UNL1       -0.0001
      4 C          59.2143   87.6659    7.0755 C.ar    1  UNL1        0.0045
      5 C          59.5894   89.1083    7.2460 C.ar    1  UNL1        0.0534
      6 C          59.9459   89.6350    8.6044 C.ar    1  UNL1        0.0019
      7 C          59.6081   90.0238    6.0579 C.2     1  UNL1        0.2495
      8 O          58.3236   90.4007    5.3812 O.2     1  UNL1       -0.2698
      9 N          60.9114   90.5625    5.5466 N.am    1  UNL1       -0.2804
     10 H          61.7544   90.3151    5.9908 H       1  UNL1        0.1552
     11 C          60.9300   91.4780    4.3586 C.ar    1  UNL1        0.0505
     12 C          59.7397   92.3394    4.0567 C.ar    1  UNL1        0.0144
     13 C          59.7584   93.2549    2.8686 C.ar    1  UNL1       -0.0016
     14 C          60.9674   93.3091    1.9825 C.ar    1  UNL1       -0.0061
     15 C          62.1578   92.4477    2.2843 C.ar    1  UNL1       -0.0016
     16 C          62.1391   91.5321    3.4723 C.ar    1  UNL1        0.0144
     17 C          60.9860   94.2246    0.7944 C.3     1  UNL1        0.0992
     18 N          62.0747   95.2466    0.6522 N.3     1  UNL1       -0.2665
     19 C          62.2075   96.3465    1.6634 C.3     1  UNL1        0.0899
     20 C          63.0304   95.1687   -0.5012 C.3     1  UNL1        0.0899
     21 C          60.2837   89.2463   11.1510 C.3     1  UNL1        0.1166
     22 C          62.7381   89.9757   11.5912 C.2     1  UNL1        0.2461
     23 O          63.1357   88.5387   11.7551 O.2     1  UNL1       -0.2701
     24 N          61.3121   90.3295   11.2892 N.am    1  UNL1       -0.2969
     25 H          61.0511   91.2727   11.1817 H       1  UNL1        0.1501
     26 C          65.8232   93.2253   12.0058 C.ar    1  UNL1        0.1492
     27 C          65.1668   92.9791   10.6798 C.ar    1  UNL1        0.0379
     28 C          64.1385   91.8959   10.5416 C.ar    1  UNL1        0.0077
     29 C          63.7665   91.0589   11.7294 C.ar    1  UNL1        0.0544
     30 C          64.4229   91.3052   13.0555 C.ar    1  UNL1        0.0190
     31 C          65.4513   92.3884   13.1937 C.ar    1  UNL1        0.0917
     32 CL         66.1077   92.6346   14.5198 Cl      1  UNL1       -0.0791
     33 C          66.6143   95.6520   11.5205 C.3     1  UNL1        0.2525
     34 O          66.8516   94.3085   12.1440 O.3     1  UNL1       -0.4706
@<TRIPOS>BOND
     1    33    34    1
     2    34    26    1
     3    26    27   ar
     4    27    28   ar
     5    28    29   ar
     6    29    22    1
     7    22    23    2
     8    22    24   am
     9    24    21    1
    10    21     1    1
    11     1     2   ar
    12     2     3   ar
    13     3     4   ar
    14     4     5   ar
    15     5     7    1
    16     7     8    2
    17     7     9   am
    18     9    11    1
    19    11    12   ar
    20    12    13   ar
    21    13    14   ar
    22    14    17    1
    23    17    18    1
    24    18    19    1
    25    18    20    1
    26    14    15   ar
    27    15    16   ar
    28     5     6   ar
    29    29    30   ar
    30    30    31   ar
    31    31    32    1
    32    31    26   ar
    33     6     1   ar
    34    16    11   ar
    35    24    25    1
    36     9    10    1
@<TRIPOS>MOLECULE
*****
 34 36 0 0 0
SMALL
GASTEIGER

@<TRIPOS>ATOM
      1 C          59.2684   90.1525    6.2752 C.ar    1  UNL1       -0.0024
      2 C          57.8290   90.4726    6.0000 C.ar    1  UNL1       -0.0026
      3 C          57.4673   91.3874    4.8675 C.ar    1  UNL1       -0.0001
      4 C          58.5450   91.9820    4.0103 C.ar    1  UNL1        0.0045
      5 C          59.9844   91.6619    4.2855 C.ar    1  UNL1        0.0534
      6 C          60.3461   90.7472    5.4179 C.ar    1  UNL1        0.0019
      7 C          61.0621   92.2565    3.4282 C.2     1  UNL1        0.2495
      8 O          62.4818   91.7973    3.5819 O.2     1  UNL1       -0.2698
      9 N          60.7202   93.3105    2.4171 N.am    1  UNL1       -0.2804
     10 H          59.7884   93.6119    2.3161 H       1  UNL1        0.1552
     11 C          61.7979   93.9051    1.5598 C.ar    1  UNL1        0.0505
     12 C          62.4209   93.0902    0.4654 C.ar    1  UNL1        0.0144
     13 C          63.4986   93.6848   -0.3919 C.ar    1  UNL1       -0.0016
     14 C          63.9533   95.0944   -0.1548 C.ar    1  UNL1       -0.0061
     15 C          63.3303   95.9095    0.9396 C.ar    1  UNL1       -0.0016
     16 C          62.2526   95.3148    1.7969 C.ar    1  UNL1        0.0144
     17 C          65.0310   95.6891   -1.0121 C.3     1  UNL1        0.0992
     18 N          64.6777   96.3431   -2.3149 N.3     1  UNL1       -0.2665
     19 C          65.7632   96.8309   -3.2279 C.3     1  UNL1        0.0899
     20 C          63.2388   96.5094   -2.7046 C.3     1  UNL1        0.0899
     21 C          59.6301   89.2378    7.4077 C.3     1  UNL1        0.1166
     22 C          61.2562   88.7467    9.3735 C.2     1  UNL1        0.2461
     23 O          61.1109   87.2744    9.1258 O.2     1  UNL1       -0.2701
     24 N          60.5158   89.7283    8.5144 N.am    1  UNL1       -0.2969
     25 H          60.6111   90.6946    8.6770 H       1  UNL1        0.1501
     26 C          63.9133   90.2184   12.6938 C.ar    1  UNL1        0.1492
     27 C          63.4718   91.1602   11.6131 C.ar    1  UNL1        0.0379
     28 C          62.5861   90.6697   10.5063 C.ar    1  UNL1        0.0077
     29 C          62.1419   89.2372   10.4803 C.ar    1  UNL1        0.0544
     30 C          62.5833   88.2954   11.5609 C.ar    1  UNL1        0.0190
     31 C          63.4690   88.7859   12.6677 C.ar    1  UNL1        0.0917
     32 CL         63.9105   87.8440   13.7484 Cl      1  UNL1       -0.0791
     33 C          65.6119   91.9556   13.6139 C.3     1  UNL1        0.2525
     34 O          64.7990   90.7089   13.8005 O.3     1  UNL1       -0.4706
@<TRIPOS>BOND
     1    33    34    1
     2    34    26    1
     3    26    27   ar
     4    27    28   ar
     5    28    29   ar
     6    29    22    1
     7    22    23    2
     8    22    24   am
     9    24    21    1
    10    21     1    1
    11     1     2   ar
    12     2     3   ar
    13     3     4   ar
    14     4     5   ar
    15     5     7    1
    16     7     8    2
    17     7     9   am
    18     9    11    1
    19    11    12   ar
    20    12    13   ar
    21    13    14   ar
    22    14    17    1
    23    17    18    1
    24    18    19    1
    25    18    20    1
    26    14    15   ar
    27    15    16   ar
    28     5     6   ar
    29    29    30   ar
    30    30    31   ar
    31    31    32    1
    32    31    26   ar
    33     6     1   ar
    34    16    11   ar
    35    24    25    1
    36     9    10    1
