@<TRIPOS>MOLECULE
*****
 42 45 0 0 0
SMALL
GASTEIGER

@<TRIPOS>ATOM
      1 C          61.6382   90.3328   11.3502 C.3     1  UNL1        0.0889
      2 C          60.3368   89.8663   11.9321 C.3     1  UNL1        0.0383
      3 C          59.5382   89.2319   10.8322 C.3     1  UNL1        0.0739
      4 N          60.3461   89.3064    9.5705 N.3     1  UNL1       -0.2700
      5 C          61.6439   89.9869    9.8907 C.3     1  UNL1        0.0919
      6 O          63.6218   88.7246   12.9247 O.2     1  UNL1       -0.2733
      7 C          63.7322   90.2200   12.8840 C.2     1  UNL1        0.2425
      8 N          62.7405   91.0241   12.0968 N.am    1  UNL1       -0.3032
      9 H          62.8130   92.0056   12.0701 H       1  UNL1        0.1495
     10 C          64.8344   90.9112   13.6305 C.3     1  UNL1        0.1759
     11 N          65.2326   92.3082   13.2562 N.am    1  UNL1       -0.2931
     12 C          65.4556   92.6641   11.8162 C.2     1  UNL1        0.2462
     13 O          65.2804   91.6231   10.7505 O.2     1  UNL1       -0.2701
     14 H          65.3476   92.9914   13.9556 H       1  UNL1        0.1502
     15 C          65.8538   94.0610   11.4418 C.ar    1  UNL1        0.0533
     16 C          66.2452   95.0406   12.5082 C.ar    1  UNL1        0.0045
     17 C          66.6433   96.4374   12.1338 C.ar    1  UNL1        0.0001
     18 C          66.6500   96.8547   10.6931 C.ar    1  UNL1        0.0039
     19 C          66.2586   95.8752    9.6267 C.ar    1  UNL1        0.0716
     20 C          65.8604   94.4783   10.0011 C.ar    1  UNL1        0.0084
     21 C          66.2653   96.2925    8.1859 C.3     1  UNL1        0.4186
     22 F          66.2720   96.7098    6.7451 F       1  UNL1       -0.1659
     23 F          64.8801   96.8470    8.3401 F       1  UNL1       -0.1659
     24 F          67.6505   95.7380    8.0317 F       1  UNL1       -0.1659
     25 C          59.9292   88.7910    8.2249 C.3     1  UNL1        0.0897
     26 C          60.0831   87.3350    7.8989 C.3     1  UNL1        0.0897
     27 N          60.9925   86.4737    8.7242 N.3     1  UNL1       -0.2686
     28 C          60.7678   86.3461   10.2017 C.3     1  UNL1        0.0939
     29 C          61.6773   85.4847   11.0271 C.3     1  UNL1        0.1110
     30 N          62.8115   84.7512   10.3747 N.am    1  UNL1       -0.2732
     31 C          63.7210   83.8899   11.2000 C.2     1  UNL1        0.2514
     32 O          64.8552   83.1563   10.5477 O.2     1  UNL1       -0.2698
     33 C          63.0362   84.8789    8.8971 C.3     1  UNL1        0.1110
     34 C          62.1267   85.7402    8.0719 C.3     1  UNL1        0.0939
     35 C          63.4963   83.7622   12.6776 C.ar    1  UNL1        0.0832
     36 C          64.0980   84.7647   13.6171 C.ar    1  UNL1        0.0364
     37 C          63.8732   84.6370   15.0946 C.ar    1  UNL1        0.1404
     38 F          64.4750   85.6396   16.0342 F       1  UNL1       -0.2042
     39 C          63.0468   83.5068   15.6326 C.ar    1  UNL1        0.0319
     40 C          62.4450   82.5042   14.6930 C.ar    1  UNL1        0.0321
     41 C          62.6697   82.6319   13.2155 C.ar    1  UNL1        0.1446
     42 F          62.0680   81.6294   12.2759 F       1  UNL1       -0.2040
@<TRIPOS>BOND
     1     6     7    2
     2     7    10    1
     3    10    11    1
     4    11    12   am
     5    12    13    2
     6    12    15    1
     7    15    16   ar
     8    16    17   ar
     9    17    18   ar
    10    18    19   ar
    11    19    21    1
    12    21    22    1
    13    21    23    1
    14    21    24    1
    15    19    20   ar
    16     7     8   am
    17     1     8    1
    18     1     2    1
    19     2     3    1
    20     3     4    1
    21     4    25    1
    22    25    26    1
    23    26    27    1
    24    27    28    1
    25    28    29    1
    26    29    30    1
    27    30    31   am
    28    31    32    2
    29    31    35    1
    30    35    36   ar
    31    36    37   ar
    32    37    38    1
    33    37    39   ar
    34    39    40   ar
    35    40    41   ar
    36    41    42    1
    37    30    33    1
    38    33    34    1
    39     4     5    1
    40    20    15   ar
    41     5     1    1
    42    34    27    1
    43    41    35   ar
    44    11    14    1
    45     8     9    1
@<TRIPOS>MOLECULE
*****
 42 45 0 0 0
SMALL
GASTEIGER

@<TRIPOS>ATOM
      1 C          59.1700   90.1046    5.7430 C.3     1  UNL1        0.0889
      2 C          58.1973   91.1841    5.3709 C.3     1  UNL1        0.0383
      3 C          58.9266   92.1997    4.5422 C.3     1  UNL1        0.0739
      4 N          60.3501   91.7478    4.4021 N.3     1  UNL1       -0.2700
      5 C          60.5005   90.4530    5.1443 C.3     1  UNL1        0.0919
      6 O          60.5553   89.6925    8.3719 O.2     1  UNL1       -0.2733
      7 C          59.5584   88.6839    7.8833 C.2     1  UNL1        0.2425
      8 N          58.8658   88.8899    6.5689 N.am    1  UNL1       -0.3032
      9 H          58.2114   88.2279    6.2482 H       1  UNL1        0.1495
     10 C          59.2541   87.4692    8.7091 C.3     1  UNL1        0.1759
     11 N          60.3203   86.4431    8.9550 N.am    1  UNL1       -0.2931
     12 C          61.0435   86.4130   10.2688 C.2     1  UNL1        0.2462
     13 O          60.7006   87.4090   11.3366 O.2     1  UNL1       -0.2701
     14 H          60.5453   85.7894    8.2541 H       1  UNL1        0.1502
     15 C          62.1097   85.3869   10.5147 C.ar    1  UNL1        0.0533
     16 C          62.9052   84.8417    9.3658 C.ar    1  UNL1        0.0045
     17 C          63.9713   83.8156    9.6118 C.ar    1  UNL1        0.0001
     18 C          64.2419   83.3348   11.0066 C.ar    1  UNL1        0.0039
     19 C          63.4464   83.8800   12.1555 C.ar    1  UNL1        0.0716
     20 C          62.3803   84.9060   11.9095 C.ar    1  UNL1        0.0084
     21 C          63.7171   83.3991   13.5503 C.3     1  UNL1        0.4186
     22 F          63.9877   82.9182   14.9451 F       1  UNL1       -0.1659
     23 F          62.3836   82.7126   13.5724 F       1  UNL1       -0.1659
     24 F          65.0506   84.0856   13.5282 F       1  UNL1       -0.1659
     25 C          61.4329   92.4649    3.6517 C.3     1  UNL1        0.0897
     26 C          61.6445   92.1874    2.1928 C.3     1  UNL1        0.0897
     27 N          60.6716   92.7148    1.1803 N.3     1  UNL1       -0.2686
     28 C          60.3725   91.9210   -0.0567 C.3     1  UNL1        0.0939
     29 C          59.3995   92.4484   -1.0693 C.3     1  UNL1        0.1110
     30 N          58.7257   93.7696   -0.8447 N.am    1  UNL1       -0.2732
     31 C          57.7527   94.2970   -1.8573 C.2     1  UNL1        0.2514
     32 O          57.0789   95.6182   -1.6328 O.2     1  UNL1       -0.2698
     33 C          59.0248   94.5634    0.3923 C.3     1  UNL1        0.1110
     34 C          59.9978   94.0360    1.4049 C.3     1  UNL1        0.0939
     35 C          57.4536   93.5031   -3.0944 C.ar    1  UNL1        0.0832
     36 C          58.1028   93.8696   -4.3959 C.ar    1  UNL1        0.0364
     37 C          57.8037   93.0757   -5.6330 C.ar    1  UNL1        0.1404
     38 F          58.4529   93.4422   -6.9346 F       1  UNL1       -0.2042
     39 C          56.8553   91.9154   -5.5684 C.ar    1  UNL1        0.0319
     40 C          56.2060   91.5489   -4.2668 C.ar    1  UNL1        0.0321
     41 C          56.5052   92.3428   -3.0297 C.ar    1  UNL1        0.1446
     42 F          55.8559   91.9763   -1.7282 F       1  UNL1       -0.2040
@<TRIPOS>BOND
     1     6     7    2
     2     7    10    1
     3    10    11    1
     4    11    12   am
     5    12    13    2
     6    12    15    1
     7    15    16   ar
     8    16    17   ar
     9    17    18   ar
    10    18    19   ar
    11    19    21    1
    12    21    22    1
    13    21    23    1
    14    21    24    1
    15    19    20   ar
    16     7     8   am
    17     1     8    1
    18     1     2    1
    19     2     3    1
    20     3     4    1
    21     4    25    1
    22    25    26    1
    23    26    27    1
    24    27    28    1
    25    28    29    1
    26    29    30    1
    27    30    31   am
    28    31    32    2
    29    31    35    1
    30    35    36   ar
    31    36    37   ar
    32    37    38    1
    33    37    39   ar
    34    39    40   ar
    35    40    41   ar
    36    41    42    1
    37    30    33    1
    38    33    34    1
    39     4     5    1
    40    20    15   ar
    41     5     1    1
    42    34    27    1
    43    41    35   ar
    44    11    14    1
    45     8     9    1
@<TRIPOS>MOLECULE
*****
 42 45 0 0 0
SMALL
GASTEIGER

@<TRIPOS>ATOM
      1 C          61.7710   85.6874   11.0457 C.3     1  UNL1        0.0889
      2 C          62.7314   84.8099   10.2991 C.3     1  UNL1        0.0383
      3 C          63.6593   84.1836   11.2975 C.3     1  UNL1        0.0739
      4 N          63.2723   84.6741   12.6612 N.3     1  UNL1       -0.2700
      5 C          62.1053   85.6035   12.5056 C.3     1  UNL1        0.0919
      6 O          62.3780   88.3738    9.8563 O.2     1  UNL1       -0.2733
      7 C          60.9730   87.8484    9.8443 C.2     1  UNL1        0.2425
      8 N          60.6695   86.5052   10.4390 N.am    1  UNL1       -0.3032
      9 H          59.7474   86.1604   10.4311 H       1  UNL1        0.1495
     10 C          59.8716   88.6662    9.2377 C.3     1  UNL1        0.1759
     11 N          60.1725   89.6138    8.1144 N.am    1  UNL1       -0.2931
     12 C          59.3594   89.5661    6.8548 C.2     1  UNL1        0.2462
     13 O          58.2455   88.5708    6.7184 O.2     1  UNL1       -0.2701
     14 H          60.9036   90.2671    8.2039 H       1  UNL1        0.1502
     15 C          59.6602   90.5137    5.7316 C.ar    1  UNL1        0.0533
     16 C          58.6054   91.4654    5.2503 C.ar    1  UNL1        0.0045
     17 C          58.9063   92.4129    4.1271 C.ar    1  UNL1        0.0001
     18 C          60.2620   92.4088    3.4852 C.ar    1  UNL1        0.0039
     19 C          61.3168   91.4571    3.9664 C.ar    1  UNL1        0.0716
     20 C          61.0159   90.5096    5.0896 C.ar    1  UNL1        0.0084
     21 C          62.6725   91.4529    3.3244 C.3     1  UNL1        0.4186
     22 F          64.0281   91.4488    2.6824 F       1  UNL1       -0.1659
     23 F          62.5068   92.8998    2.9652 F       1  UNL1       -0.1659
     24 F          62.8382   90.0060    3.6837 F       1  UNL1       -0.1659
     25 C          63.9359   84.3008   13.9536 C.3     1  UNL1        0.0897
     26 C          63.5431   84.9922   15.2255 C.3     1  UNL1        0.0897
     27 N          63.6749   86.4819   15.3408 N.3     1  UNL1       -0.2686
     28 C          64.4530   87.2478   14.3123 C.3     1  UNL1        0.0939
     29 C          64.5849   88.7376   14.4276 C.3     1  UNL1        0.1110
     30 N          63.9386   89.4613   15.5715 N.am    1  UNL1       -0.2732
     31 C          64.0705   90.9511   15.6869 C.2     1  UNL1        0.2514
     32 O          63.4242   91.6749   16.8308 O.2     1  UNL1       -0.2698
     33 C          63.1605   88.6954   16.6001 C.3     1  UNL1        0.1110
     34 C          63.0286   87.2057   16.4847 C.3     1  UNL1        0.0939
     35 C          64.8486   91.7170   14.6583 C.ar    1  UNL1        0.0832
     36 C          64.4778   91.6155   13.2085 C.ar    1  UNL1        0.0364
     37 C          65.2559   92.3814   12.1800 C.ar    1  UNL1        0.1404
     38 F          64.8851   92.2799   10.7300 F       1  UNL1       -0.2042
     39 C          66.4048   93.2489   12.6013 C.ar    1  UNL1        0.0319
     40 C          66.7756   93.3504   14.0512 C.ar    1  UNL1        0.0321
     41 C          65.9975   92.5845   15.0798 C.ar    1  UNL1        0.1446
     42 F          66.3683   92.6860   16.5296 F       1  UNL1       -0.2040
@<TRIPOS>BOND
     1     6     7    2
     2     7    10    1
     3    10    11    1
     4    11    12   am
     5    12    13    2
     6    12    15    1
     7    15    16   ar
     8    16    17   ar
     9    17    18   ar
    10    18    19   ar
    11    19    21    1
    12    21    22    1
    13    21    23    1
    14    21    24    1
    15    19    20   ar
    16     7     8   am
    17     1     8    1
    18     1     2    1
    19     2     3    1
    20     3     4    1
    21     4    25    1
    22    25    26    1
    23    26    27    1
    24    27    28    1
    25    28    29    1
    26    29    30    1
    27    30    31   am
    28    31    32    2
    29    31    35    1
    30    35    36   ar
    31    36    37   ar
    32    37    38    1
    33    37    39   ar
    34    39    40   ar
    35    40    41   ar
    36    41    42    1
    37    30    33    1
    38    33    34    1
    39     4     5    1
    40    20    15   ar
    41     5     1    1
    42    34    27    1
    43    41    35   ar
    44    11    14    1
    45     8     9    1
@<TRIPOS>MOLECULE
*****
 42 45 0 0 0
SMALL
GASTEIGER

@<TRIPOS>ATOM
      1 C          59.1280   91.8301    4.3498 C.3     1  UNL1        0.0889
      2 C          57.7491   91.5739    4.8819 C.3     1  UNL1        0.0383
      3 C          57.8438   90.4862    5.9104 C.3     1  UNL1        0.0739
      4 N          59.2813   90.0701    6.0140 N.3     1  UNL1       -0.2700
      5 C          60.0749   90.9007    5.0495 C.3     1  UNL1        0.0919
      6 O          61.9356   91.9468    3.2993 O.2     1  UNL1       -0.2733
      7 C          60.8992   92.8970    2.7768 C.2     1  UNL1        0.2425
      8 N          59.4955   92.8387    3.3020 N.am    1  UNL1       -0.3032
      9 H          58.8152   93.4623    2.9590 H       1  UNL1        0.1495
     10 C          61.2667   93.9055    1.7290 C.3     1  UNL1        0.1759
     11 N          60.3098   94.2127    0.6154 N.am    1  UNL1       -0.2931
     12 C          59.9197   93.1384   -0.3560 C.2     1  UNL1        0.2462
     13 O          60.4865   91.7569   -0.2139 O.2     1  UNL1       -0.2701
     14 H          59.9377   95.1194    0.5221 H       1  UNL1        0.1502
     15 C          58.9628   93.4456   -1.4696 C.ar    1  UNL1        0.0533
     16 C          59.4228   93.3719   -2.8954 C.ar    1  UNL1        0.0045
     17 C          58.4659   93.6791   -4.0090 C.ar    1  UNL1        0.0001
     18 C          57.0491   94.0599   -3.6967 C.ar    1  UNL1        0.0039
     19 C          56.5891   94.1335   -2.2709 C.ar    1  UNL1        0.0716
     20 C          57.5460   93.8264   -1.1574 C.ar    1  UNL1        0.0084
     21 C          55.1722   94.5144   -1.9586 C.3     1  UNL1        0.4186
     22 F          53.7554   94.8952   -1.6463 F       1  UNL1       -0.1659
     23 F          54.8530   93.0799   -1.6577 F       1  UNL1       -0.1659
     24 F          55.4915   95.9488   -2.2596 F       1  UNL1       -0.1659
     25 C          59.8289   89.0096    6.9226 C.3     1  UNL1        0.0897
     26 C          59.5771   89.0840    8.3994 C.3     1  UNL1        0.0897
     27 N          60.4093   88.2687    9.3441 N.3     1  UNL1       -0.2686
     28 C          60.4105   86.7721    9.2423 C.3     1  UNL1        0.0939
     29 C          61.2428   85.9567   10.1871 C.3     1  UNL1        0.1110
     30 N          62.0738   86.6380   11.2336 N.am    1  UNL1       -0.2732
     31 C          62.9061   85.8226   12.1784 C.2     1  UNL1        0.2514
     32 O          63.7372   86.5038   13.2249 O.2     1  UNL1       -0.2698
     33 C          62.0727   88.1345   11.3354 C.3     1  UNL1        0.1110
     34 C          61.2404   88.9499   10.3907 C.3     1  UNL1        0.0939
     35 C          62.9073   84.3261   12.0765 C.ar    1  UNL1        0.0832
     36 C          62.3520   83.4977   13.1969 C.ar    1  UNL1        0.0364
     37 C          62.3531   82.0011   13.0950 C.ar    1  UNL1        0.1404
     38 F          61.7978   81.1727   14.2155 F       1  UNL1       -0.2042
     39 C          62.9096   81.3331   11.8728 C.ar    1  UNL1        0.0319
     40 C          63.4650   82.1615   10.7524 C.ar    1  UNL1        0.0321
     41 C          63.4638   83.6580   10.8542 C.ar    1  UNL1        0.1446
     42 F          64.0191   84.4864    9.7339 F       1  UNL1       -0.2040
@<TRIPOS>BOND
     1     6     7    2
     2     7    10    1
     3    10    11    1
     4    11    12   am
     5    12    13    2
     6    12    15    1
     7    15    16   ar
     8    16    17   ar
     9    17    18   ar
    10    18    19   ar
    11    19    21    1
    12    21    22    1
    13    21    23    1
    14    21    24    1
    15    19    20   ar
    16     7     8   am
    17     1     8    1
    18     1     2    1
    19     2     3    1
    20     3     4    1
    21     4    25    1
    22    25    26    1
    23    26    27    1
    24    27    28    1
    25    28    29    1
    26    29    30    1
    27    30    31   am
    28    31    32    2
    29    31    35    1
    30    35    36   ar
    31    36    37   ar
    32    37    38    1
    33    37    39   ar
    34    39    40   ar
    35    40    41   ar
    36    41    42    1
    37    30    33    1
    38    33    34    1
    39     4     5    1
    40    20    15   ar
    41     5     1    1
    42    34    27    1
    43    41    35   ar
    44    11    14    1
    45     8     9    1
@<TRIPOS>MOLECULE
*****
 42 45 0 0 0
SMALL
GASTEIGER

@<TRIPOS>ATOM
      1 C          59.6747   91.6461    4.3805 C.3     1  UNL1        0.0889
      2 C          58.2494   91.6374    4.8476 C.3     1  UNL1        0.0383
      3 C          58.1288   90.6265    5.9493 C.3     1  UNL1        0.0739
      4 N          59.4797   90.0104    6.1629 N.3     1  UNL1       -0.2700
      5 C          60.4351   90.6406    5.1934 C.3     1  UNL1        0.0919
      6 O          62.5846   91.4566    3.6756 O.2     1  UNL1       -0.2733
      7 C          61.6953   92.4141    2.9391 C.2     1  UNL1        0.2425
      8 N          60.2404   92.5088    3.2915 N.am    1  UNL1       -0.3032
      9 H          59.6568   93.1373    2.8081 H       1  UNL1        0.1495
     10 C          62.2610   93.2768    1.8503 C.3     1  UNL1        0.1759
     11 N          61.7301   93.1639    0.4518 N.am    1  UNL1       -0.2931
     12 C          60.3774   93.7185    0.1161 C.2     1  UNL1        0.2462
     13 O          59.5556   94.3859    1.1787 O.2     1  UNL1       -0.2701
     14 H          62.2694   92.7259   -0.2456 H       1  UNL1        0.1502
     15 C          59.8465   93.6056   -1.2823 C.ar    1  UNL1        0.0533
     16 C          60.5448   94.3083   -2.4086 C.ar    1  UNL1        0.0045
     17 C          60.0139   94.1954   -3.8069 C.ar    1  UNL1        0.0001
     18 C          58.7847   93.3798   -4.0789 C.ar    1  UNL1        0.0039
     19 C          58.0864   92.6772   -2.9526 C.ar    1  UNL1        0.0716
     20 C          58.6174   92.7901   -1.5543 C.ar    1  UNL1        0.0084
     21 C          56.8573   91.8616   -3.2246 C.3     1  UNL1        0.4186
     22 F          55.6281   91.0460   -3.4966 F       1  UNL1       -0.1659
     23 F          56.1425   92.5672   -2.1105 F       1  UNL1       -0.1659
     24 F          57.5720   91.1560   -4.3388 F       1  UNL1       -0.1659
     25 C          59.8161   88.9504    7.1695 C.3     1  UNL1        0.0897
     26 C          59.8012   89.2749    8.6339 C.3     1  UNL1        0.0897
     27 N          60.6057   88.4489    9.5932 N.3     1  UNL1       -0.2686
     28 C          60.5136   86.9522    9.5545 C.3     1  UNL1        0.0939
     29 C          61.3181   86.1261   10.5139 C.3     1  UNL1        0.1110
     30 N          62.2148   86.7969   11.5120 N.am    1  UNL1       -0.2732
     31 C          63.0193   85.9708   12.4715 C.2     1  UNL1        0.2514
     32 O          63.9160   86.6415   13.4696 O.2     1  UNL1       -0.2698
     33 C          62.3069   88.2935   11.5508 C.3     1  UNL1        0.1110
     34 C          61.5024   89.1195   10.5914 C.3     1  UNL1        0.0939
     35 C          62.9272   84.4741   12.4327 C.ar    1  UNL1        0.0832
     36 C          63.3966   83.7250   11.2211 C.ar    1  UNL1        0.0364
     37 C          63.3045   82.2283   11.1823 C.ar    1  UNL1        0.1404
     38 F          63.7740   81.4791    9.9706 F       1  UNL1       -0.2042
     39 C          62.7429   81.4809   12.3553 C.ar    1  UNL1        0.0319
     40 C          62.2734   82.2301   13.5670 C.ar    1  UNL1        0.0321
     41 C          62.3655   83.7268   13.6058 C.ar    1  UNL1        0.1446
     42 F          61.8960   84.4760   14.8174 F       1  UNL1       -0.2040
@<TRIPOS>BOND
     1     6     7    2
     2     7    10    1
     3    10    11    1
     4    11    12   am
     5    12    13    2
     6    12    15    1
     7    15    16   ar
     8    16    17   ar
     9    17    18   ar
    10    18    19   ar
    11    19    21    1
    12    21    22    1
    13    21    23    1
    14    21    24    1
    15    19    20   ar
    16     7     8   am
    17     1     8    1
    18     1     2    1
    19     2     3    1
    20     3     4    1
    21     4    25    1
    22    25    26    1
    23    26    27    1
    24    27    28    1
    25    28    29    1
    26    29    30    1
    27    30    31   am
    28    31    32    2
    29    31    35    1
    30    35    36   ar
    31    36    37   ar
    32    37    38    1
    33    37    39   ar
    34    39    40   ar
    35    40    41   ar
    36    41    42    1
    37    30    33    1
    38    33    34    1
    39     4     5    1
    40    20    15   ar
    41     5     1    1
    42    34    27    1
    43    41    35   ar
    44    11    14    1
    45     8     9    1
@<TRIPOS>MOLECULE
*****
 42 45 0 0 0
SMALL
GASTEIGER

@<TRIPOS>ATOM
      1 C          60.2061   88.0812    8.7383 C.3     1  UNL1        0.0889
      2 C          58.9926   87.6298    7.9810 C.3     1  UNL1        0.0383
      3 C          59.3251   86.3340    7.3026 C.3     1  UNL1        0.0739
      4 N          60.7441   85.9845    7.6406 N.3     1  UNL1       -0.2700
      5 C          61.2886   87.0643    8.5280 C.3     1  UNL1        0.0919
      6 O          60.2296   87.9068   11.7332 O.2     1  UNL1       -0.2733
      7 C          60.3294   89.2430   11.0590 C.2     1  UNL1        0.2425
      8 N          60.3177   89.3302    9.5616 N.am    1  UNL1       -0.3032
      9 H          60.3832   90.2072    9.1190 H       1  UNL1        0.1495
     10 C          60.4409   90.4919   11.8821 C.3     1  UNL1        0.1759
     11 N          61.7434   91.2332   11.9476 N.am    1  UNL1       -0.2931
     12 C          62.9849   90.5287   12.4084 C.2     1  UNL1        0.2462
     13 O          62.9240   89.0830   12.8036 O.2     1  UNL1       -0.2701
     14 H          61.7833   92.1821   11.6882 H       1  UNL1        0.1502
     15 C          64.2873   91.2700   12.4740 C.ar    1  UNL1        0.0533
     16 C          64.7790   92.0296   11.2777 C.ar    1  UNL1        0.0045
     17 C          66.0814   92.7708   11.3433 C.ar    1  UNL1        0.0001
     18 C          66.8921   92.7524   12.6052 C.ar    1  UNL1        0.0039
     19 C          66.4004   91.9928   13.8015 C.ar    1  UNL1        0.0716
     20 C          65.0981   91.2516   13.7359 C.ar    1  UNL1        0.0084
     21 C          67.2112   91.9743   15.0634 C.3     1  UNL1        0.4186
     22 F          68.0219   91.9559   16.3253 F       1  UNL1       -0.1659
     23 F          65.9492   91.9715   15.8741 F       1  UNL1       -0.1659
     24 F          68.4732   91.9771   14.2526 F       1  UNL1       -0.1659
     25 C          61.4880   84.7686    7.1733 C.3     1  UNL1        0.0897
     26 C          62.8987   84.5327    7.6253 C.3     1  UNL1        0.0897
     27 N          63.1900   84.2850    9.0758 N.3     1  UNL1       -0.2686
     28 C          62.8562   85.3316   10.0971 C.3     1  UNL1        0.0939
     29 C          63.1475   85.0839   11.5477 C.3     1  UNL1        0.1110
     30 N          63.7725   83.7895   11.9766 N.am    1  UNL1       -0.2732
     31 C          64.0638   83.5418   13.4271 C.2     1  UNL1        0.2514
     32 O          64.6889   82.2475   13.8562 O.2     1  UNL1       -0.2698
     33 C          64.1063   82.7429   10.9552 C.3     1  UNL1        0.1110
     34 C          63.8150   82.9907    9.5048 C.3     1  UNL1        0.0939
     35 C          63.7300   84.5884   14.4485 C.ar    1  UNL1        0.0832
     36 C          64.3550   85.9490   14.3599 C.ar    1  UNL1        0.0364
     37 C          64.0212   86.9956   15.3813 C.ar    1  UNL1        0.1404
     38 F          64.6463   88.3563   15.2928 F       1  UNL1       -0.2042
     39 C          63.0624   86.6815   16.4913 C.ar    1  UNL1        0.0319
     40 C          62.4374   85.3208   16.5798 C.ar    1  UNL1        0.0321
     41 C          62.7712   84.2742   15.5584 C.ar    1  UNL1        0.1446
     42 F          62.1462   82.9136   15.6470 F       1  UNL1       -0.2040
@<TRIPOS>BOND
     1     6     7    2
     2     7    10    1
     3    10    11    1
     4    11    12   am
     5    12    13    2
     6    12    15    1
     7    15    16   ar
     8    16    17   ar
     9    17    18   ar
    10    18    19   ar
    11    19    21    1
    12    21    22    1
    13    21    23    1
    14    21    24    1
    15    19    20   ar
    16     7     8   am
    17     1     8    1
    18     1     2    1
    19     2     3    1
    20     3     4    1
    21     4    25    1
    22    25    26    1
    23    26    27    1
    24    27    28    1
    25    28    29    1
    26    29    30    1
    27    30    31   am
    28    31    32    2
    29    31    35    1
    30    35    36   ar
    31    36    37   ar
    32    37    38    1
    33    37    39   ar
    34    39    40   ar
    35    40    41   ar
    36    41    42    1
    37    30    33    1
    38    33    34    1
    39     4     5    1
    40    20    15   ar
    41     5     1    1
    42    34    27    1
    43    41    35   ar
    44    11    14    1
    45     8     9    1
@<TRIPOS>MOLECULE
*****
 42 45 0 0 0
SMALL
GASTEIGER

@<TRIPOS>ATOM
      1 C          60.1207   88.0272    8.8140 C.3     1  UNL1        0.0889
      2 C          58.8953   87.5726    8.0779 C.3     1  UNL1        0.0383
      3 C          59.2362   86.3080    7.3468 C.3     1  UNL1        0.0739
      4 N          60.6723   85.9809    7.6311 N.3     1  UNL1       -0.2700
      5 C          61.2189   87.0435    8.5378 C.3     1  UNL1        0.0919
      6 O          60.6173   87.7494   11.7595 O.2     1  UNL1       -0.2733
      7 C          60.4772   89.1118   11.1478 C.2     1  UNL1        0.2425
      8 N          60.2288   89.2507    9.6751 N.am    1  UNL1       -0.3032
      9 H          60.1368   90.1449    9.2736 H       1  UNL1        0.1495
     10 C          60.5853   90.3352   12.0088 C.3     1  UNL1        0.1759
     11 N          61.9339   90.8379   12.4318 N.am    1  UNL1       -0.2931
     12 C          62.9949   91.0950   11.4032 C.2     1  UNL1        0.2462
     13 O          62.7075   90.8496    9.9516 O.2     1  UNL1       -0.2701
     14 H          62.1226   90.9990   13.3845 H       1  UNL1        0.1502
     15 C          64.3435   91.5977   11.8261 C.ar    1  UNL1        0.0533
     16 C          64.7995   91.4193   13.2439 C.ar    1  UNL1        0.0045
     17 C          66.1480   91.9219   13.6668 C.ar    1  UNL1        0.0001
     18 C          67.0404   92.6030   12.6719 C.ar    1  UNL1        0.0039
     19 C          66.5844   92.7814   11.2542 C.ar    1  UNL1        0.0716
     20 C          65.2359   92.2787   10.8313 C.ar    1  UNL1        0.0084
     21 C          67.4768   93.4624   10.2593 C.3     1  UNL1        0.4186
     22 F          68.3692   94.1434    9.2644 F       1  UNL1       -0.1659
     23 F          67.9527   92.1262    9.7715 F       1  UNL1       -0.1659
     24 F          67.0009   94.7986   10.7471 F       1  UNL1       -0.1659
     25 C          61.4289   84.7989    7.1016 C.3     1  UNL1        0.0897
     26 C          62.8438   84.5578    7.5372 C.3     1  UNL1        0.0897
     27 N          63.1503   84.3033    8.9833 N.3     1  UNL1       -0.2686
     28 C          62.8307   85.3467   10.0125 C.3     1  UNL1        0.0939
     29 C          63.1372   85.0923   11.4587 C.3     1  UNL1        0.1110
     30 N          63.7632   83.7945   11.8756 N.am    1  UNL1       -0.2732
     31 C          64.0697   83.5401   13.3218 C.2     1  UNL1        0.2514
     32 O          64.6957   82.2423   13.7387 O.2     1  UNL1       -0.2698
     33 C          64.0828   82.7511   10.8464 C.3     1  UNL1        0.1110
     34 C          63.7763   83.0055    9.4003 C.3     1  UNL1        0.0939
     35 C          63.7501   84.5834   14.3510 C.ar    1  UNL1        0.0832
     36 C          64.3636   85.9485   14.2506 C.ar    1  UNL1        0.0364
     37 C          64.0440   86.9919   15.2798 C.ar    1  UNL1        0.1404
     38 F          64.6575   88.3570   15.1795 F       1  UNL1       -0.2042
     39 C          63.1110   86.6701   16.4093 C.ar    1  UNL1        0.0319
     40 C          62.4975   85.3050   16.5097 C.ar    1  UNL1        0.0321
     41 C          62.8170   84.2616   15.4805 C.ar    1  UNL1        0.1446
     42 F          62.2036   82.8965   15.5808 F       1  UNL1       -0.2040
@<TRIPOS>BOND
     1     6     7    2
     2     7    10    1
     3    10    11    1
     4    11    12   am
     5    12    13    2
     6    12    15    1
     7    15    16   ar
     8    16    17   ar
     9    17    18   ar
    10    18    19   ar
    11    19    21    1
    12    21    22    1
    13    21    23    1
    14    21    24    1
    15    19    20   ar
    16     7     8   am
    17     1     8    1
    18     1     2    1
    19     2     3    1
    20     3     4    1
    21     4    25    1
    22    25    26    1
    23    26    27    1
    24    27    28    1
    25    28    29    1
    26    29    30    1
    27    30    31   am
    28    31    32    2
    29    31    35    1
    30    35    36   ar
    31    36    37   ar
    32    37    38    1
    33    37    39   ar
    34    39    40   ar
    35    40    41   ar
    36    41    42    1
    37    30    33    1
    38    33    34    1
    39     4     5    1
    40    20    15   ar
    41     5     1    1
    42    34    27    1
    43    41    35   ar
    44    11    14    1
    45     8     9    1
@<TRIPOS>MOLECULE
*****
 42 45 0 0 0
SMALL
GASTEIGER

@<TRIPOS>ATOM
      1 C          60.2491   88.6591    9.3108 C.3     1  UNL1        0.0889
      2 C          59.6026   87.3780    8.8741 C.3     1  UNL1        0.0383
      3 C          58.9951   87.6030    7.5212 C.3     1  UNL1        0.0739
      4 N          59.2662   89.0233    7.1217 N.3     1  UNL1       -0.2700
      5 C          60.0412   89.6759    8.2278 C.3     1  UNL1        0.0919
      6 O          62.3708   86.7307   10.1939 O.2     1  UNL1       -0.2733
      7 C          62.0368   87.9197   11.0451 C.2     1  UNL1        0.2425
      8 N          60.9760   88.8839   10.6036 N.am    1  UNL1       -0.3032
      9 H          60.7568   89.6643   11.1623 H       1  UNL1        0.1495
     10 C          62.7636   88.1446   12.3378 C.3     1  UNL1        0.1759
     11 N          63.7312   89.2836   12.4659 N.am    1  UNL1       -0.2931
     12 C          63.7452   90.1194   13.7114 C.2     1  UNL1        0.2462
     13 O          62.7916   89.8162   14.8288 O.2     1  UNL1       -0.2701
     14 H          64.3572   89.4826   11.7325 H       1  UNL1        0.1502
     15 C          64.7129   91.2584   13.8395 C.ar    1  UNL1        0.0533
     16 C          65.3163   91.5834   15.1737 C.ar    1  UNL1        0.0045
     17 C          66.2839   92.7224   15.3018 C.ar    1  UNL1        0.0001
     18 C          66.6481   93.5363   14.0956 C.ar    1  UNL1        0.0039
     19 C          66.0447   93.2113   12.7614 C.ar    1  UNL1        0.0716
     20 C          65.0771   92.0723   12.6333 C.ar    1  UNL1        0.0084
     21 C          66.4089   94.0252   11.5552 C.3     1  UNL1        0.4186
     22 F          66.7731   94.8392   10.3490 F       1  UNL1       -0.1659
     23 F          66.6782   92.7656   10.7865 F       1  UNL1       -0.1659
     24 F          66.1397   95.2848   12.3239 F       1  UNL1       -0.1659
     25 C          58.8376   89.6762    5.8411 C.3     1  UNL1        0.0897
     26 C          59.0351   91.1505    5.6483 C.3     1  UNL1        0.0897
     27 N          59.9284   91.6504    4.5519 N.3     1  UNL1       -0.2686
     28 C          59.3715   92.5333    3.4747 C.3     1  UNL1        0.0939
     29 C          60.2649   93.0333    2.3782 C.3     1  UNL1        0.1110
     30 N          61.7150   92.6502    2.3591 N.am    1  UNL1       -0.2732
     31 C          62.6083   93.1502    1.2627 C.2     1  UNL1        0.2514
     32 O          64.0585   92.7672    1.2435 O.2     1  UNL1       -0.2698
     33 C          62.2719   91.7673    3.4363 C.3     1  UNL1        0.1110
     34 C          61.3786   91.2674    4.5327 C.3     1  UNL1        0.0939
     35 C          62.0515   94.0331    0.1855 C.ar    1  UNL1        0.0832
     36 C          61.5996   93.4364   -1.1143 C.ar    1  UNL1        0.0364
     37 C          61.0427   94.3193   -2.1915 C.ar    1  UNL1        0.1404
     38 F          60.5908   93.7225   -3.4914 F       1  UNL1       -0.2042
     39 C          60.9378   95.7989   -1.9688 C.ar    1  UNL1        0.0319
     40 C          61.3897   96.3957   -0.6690 C.ar    1  UNL1        0.0321
     41 C          61.9466   95.5127    0.4082 C.ar    1  UNL1        0.1446
     42 F          62.3985   96.1094    1.7081 F       1  UNL1       -0.2040
@<TRIPOS>BOND
     1     6     7    2
     2     7    10    1
     3    10    11    1
     4    11    12   am
     5    12    13    2
     6    12    15    1
     7    15    16   ar
     8    16    17   ar
     9    17    18   ar
    10    18    19   ar
    11    19    21    1
    12    21    22    1
    13    21    23    1
    14    21    24    1
    15    19    20   ar
    16     7     8   am
    17     1     8    1
    18     1     2    1
    19     2     3    1
    20     3     4    1
    21     4    25    1
    22    25    26    1
    23    26    27    1
    24    27    28    1
    25    28    29    1
    26    29    30    1
    27    30    31   am
    28    31    32    2
    29    31    35    1
    30    35    36   ar
    31    36    37   ar
    32    37    38    1
    33    37    39   ar
    34    39    40   ar
    35    40    41   ar
    36    41    42    1
    37    30    33    1
    38    33    34    1
    39     4     5    1
    40    20    15   ar
    41     5     1    1
    42    34    27    1
    43    41    35   ar
    44    11    14    1
    45     8     9    1
@<TRIPOS>MOLECULE
*****
 42 45 0 0 0
SMALL
GASTEIGER

@<TRIPOS>ATOM
      1 C          62.9671   90.7689   11.7857 C.3     1  UNL1        0.0889
      2 C          64.2226   91.5669   11.5938 C.3     1  UNL1        0.0383
      3 C          64.9525   91.6049   12.9036 C.3     1  UNL1        0.0739
      4 N          64.1481   90.8303   13.9052 N.3     1  UNL1       -0.2700
      5 C          62.9211   90.3137   13.2142 C.3     1  UNL1        0.0919
      6 O          61.9429   87.9725   11.4236 O.2     1  UNL1       -0.2733
      7 C          61.4261   89.0791   10.5528 C.2     1  UNL1        0.2425
      8 N          61.9382   90.4773   10.7338 N.am    1  UNL1       -0.3032
      9 H          61.5990   91.2036   10.1623 H       1  UNL1        0.1495
     10 C          60.3973   88.7875    9.5009 C.3     1  UNL1        0.1759
     11 N          60.1615   89.7678    8.3903 N.am    1  UNL1       -0.2931
     12 C          59.5498   89.3071    7.1006 C.2     1  UNL1        0.2462
     13 O          59.1738   87.8661    6.9214 O.2     1  UNL1       -0.2701
     14 H          60.4082   90.7136    8.5079 H       1  UNL1        0.1502
     15 C          59.3139   90.2874    5.9899 C.ar    1  UNL1        0.0533
     16 C          57.9207   90.7484    5.6797 C.ar    1  UNL1        0.0045
     17 C          57.6849   91.7287    4.5691 C.ar    1  UNL1        0.0001
     18 C          58.8424   92.2479    3.7687 C.ar    1  UNL1        0.0039
     19 C          60.2356   91.7869    4.0789 C.ar    1  UNL1        0.0716
     20 C          60.4714   90.8066    5.1895 C.ar    1  UNL1        0.0084
     21 C          61.3931   92.3061    3.2785 C.3     1  UNL1        0.4186
     22 F          62.5506   92.8253    2.4781 F       1  UNL1       -0.1659
     23 F          62.2766   91.2477    3.8695 F       1  UNL1       -0.1659
     24 F          60.5097   93.3645    2.6876 F       1  UNL1       -0.1659
     25 C          64.5076   90.6110   15.3448 C.3     1  UNL1        0.0897
     26 C          63.7020   89.6631   16.1830 C.3     1  UNL1        0.0897
     27 N          63.5608   88.2288   15.7673 N.3     1  UNL1       -0.2686
     28 C          63.8508   87.8261   14.3518 C.3     1  UNL1        0.0939
     29 C          63.7095   86.3917   13.9361 C.3     1  UNL1        0.1110
     30 N          63.2783   85.3602   14.9361 N.am    1  UNL1       -0.2732
     31 C          63.1371   83.9258   14.5203 C.2     1  UNL1        0.2514
     32 O          62.7058   82.8941   15.5202 O.2     1  UNL1       -0.2698
     33 C          62.9883   85.7628   16.3516 C.3     1  UNL1        0.1110
     34 C          63.1295   87.1971   16.7672 C.3     1  UNL1        0.0939
     35 C          63.4271   83.5231   13.1048 C.ar    1  UNL1        0.0832
     36 C          63.1637   84.4833   11.9830 C.ar    1  UNL1        0.0364
     37 C          63.4537   84.0807   10.5675 C.ar    1  UNL1        0.1404
     38 F          63.1903   85.0409    9.4456 F       1  UNL1       -0.2042
     39 C          64.0071   82.7178   10.2738 C.ar    1  UNL1        0.0319
     40 C          64.2705   81.7575   11.3957 C.ar    1  UNL1        0.0321
     41 C          63.9805   82.1602   12.8112 C.ar    1  UNL1        0.1446
     42 F          64.2438   81.2000   13.9330 F       1  UNL1       -0.2040
@<TRIPOS>BOND
     1     6     7    2
     2     7    10    1
     3    10    11    1
     4    11    12   am
     5    12    13    2
     6    12    15    1
     7    15    16   ar
     8    16    17   ar
     9    17    18   ar
    10    18    19   ar
    11    19    21    1
    12    21    22    1
    13    21    23    1
    14    21    24    1
    15    19    20   ar
    16     7     8   am
    17     1     8    1
    18     1     2    1
    19     2     3    1
    20     3     4    1
    21     4    25    1
    22    25    26    1
    23    26    27    1
    24    27    28    1
    25    28    29    1
    26    29    30    1
    27    30    31   am
    28    31    32    2
    29    31    35    1
    30    35    36   ar
    31    36    37   ar
    32    37    38    1
    33    37    39   ar
    34    39    40   ar
    35    40    41   ar
    36    41    42    1
    37    30    33    1
    38    33    34    1
    39     4     5    1
    40    20    15   ar
    41     5     1    1
    42    34    27    1
    43    41    35   ar
    44    11    14    1
    45     8     9    1
