@<TRIPOS>MOLECULE
*****
 31 34 0 0 0
SMALL
GASTEIGER

@<TRIPOS>ATOM
      1 C          65.0550   91.8555   12.0436 C.ar    1  UNL1        0.0005
      2 C          64.2305   91.7474   10.7953 C.ar    1  UNL1       -0.0011
      3 C          63.0209   90.8607   10.7697 C.ar    1  UNL1        0.0143
      4 C          62.6358   90.0821   11.9926 C.ar    1  UNL1        0.0483
      5 C          63.4603   90.1902   13.2410 C.ar    1  UNL1        0.0143
      6 C          64.6699   91.0769   13.2666 C.ar    1  UNL1       -0.0011
      7 N          61.4262   89.1954   11.9670 N.pl3   1  UNL1       -0.3125
      8 H          60.8026   89.1914   12.7288 H       1  UNL1        0.1522
      9 C          61.1668   88.3147   10.7807 C.ar    1  UNL1        0.0483
     10 C          59.8297   88.3461   10.1016 C.ar    1  UNL1        0.0146
     11 C          59.5703   87.4655    8.9154 C.ar    1  UNL1        0.0013
     12 C          60.6479   86.5535    8.4082 C.ar    1  UNL1        0.0001
     13 C          60.3884   85.6729    7.2220 C.ar    1  UNL1        0.0000
     14 C          61.4660   84.7609    6.7150 C.ar    1  UNL1        0.0000
     15 C          62.8031   84.7296    7.3941 C.ar    1  UNL1        0.0000
     16 C          63.0625   85.6102    8.5804 C.ar    1  UNL1        0.0000
     17 C          61.9849   86.5221    9.0874 C.ar    1  UNL1        0.0012
     18 C          62.2444   87.4028   10.2737 C.ar    1  UNL1        0.0146
     19 C          66.2646   92.7422   12.0692 C.3     1  UNL1        0.1390
     20 N          67.0614   92.8877   13.3317 N.ar    1  UNL1       -0.2273
     21 C          66.7109   93.7610   14.4997 C.ar    1  UNL1        0.1975
     22 N          67.7814   93.5984   15.5377 N.ar    1  UNL1       -0.2007
     23 C          68.7936   92.6246   15.0112 C.ar    1  UNL1        0.2210
     24 N          68.3486   92.1854   13.6477 N.ar    1  UNL1       -0.1449
     25 C          66.6774   93.4835   10.8321 C.3     1  UNL1        0.1141
     26 C          67.4836   92.2981   10.3908 C.3     1  UNL1        0.0134
     27 C          65.8711   94.6689   11.2735 C.3     1  UNL1        0.0134
     28 C          67.0901   94.2248    9.5952 C.2     1  UNL1        0.3182
     29 O          67.9777   93.5613    8.5843 O.2     1  UNL1       -0.2501
     30 C          67.3635   96.5330    8.4343 C.3     1  UNL1        0.2556
     31 O          66.6152   95.6296    9.3691 O.3     1  UNL1       -0.4444
@<TRIPOS>BOND
     1    30    31    1
     2    31    28    1
     3    28    29    2
     4    28    25    1
     5    25    26    1
     6    25    27    1
     7    25    19    1
     8    19     1    1
     9     1     2   ar
    10     2     3   ar
    11     3     4   ar
    12     4     7    1
    13     7     9    1
    14     9    10   ar
    15    10    11   ar
    16    11    12   ar
    17    12    13   ar
    18    13    14   ar
    19    14    15   ar
    20    15    16   ar
    21    16    17   ar
    22    17    18   ar
    23     4     5   ar
    24     5     6   ar
    25    19    20    1
    26    20    21   ar
    27    21    22   ar
    28    22    23   ar
    29    23    24   ar
    30     6     1   ar
    31    24    20   ar
    32    18     9   ar
    33    17    12   ar
    34     7     8    1
@<TRIPOS>MOLECULE
*****
 31 34 0 0 0
SMALL
GASTEIGER

@<TRIPOS>ATOM
      1 C          65.0464   91.9493   12.1699 C.ar    1  UNL1        0.0005
      2 C          64.2801   91.7725   10.8926 C.ar    1  UNL1       -0.0011
      3 C          63.0841   90.8680   10.8546 C.ar    1  UNL1        0.0143
      4 C          62.6543   90.1403   12.0938 C.ar    1  UNL1        0.0483
      5 C          63.4206   90.3171   13.3712 C.ar    1  UNL1        0.0143
      6 C          64.6166   91.2216   13.4092 C.ar    1  UNL1       -0.0011
      7 N          61.4583   89.2358   12.0558 N.pl3   1  UNL1       -0.3125
      8 H          60.8392   89.2059   12.8206 H       1  UNL1        0.1522
      9 C          61.2056   88.3768   10.8523 C.ar    1  UNL1        0.0483
     10 C          59.8960   88.4689   10.1267 C.ar    1  UNL1        0.0146
     11 C          59.6433   87.6100    8.9233 C.ar    1  UNL1        0.0013
     12 C          60.7002   86.6589    8.4453 C.ar    1  UNL1        0.0001
     13 C          60.4474   85.7999    7.2419 C.ar    1  UNL1        0.0000
     14 C          61.5043   84.8489    6.7640 C.ar    1  UNL1        0.0000
     15 C          62.8140   84.7568    7.4895 C.ar    1  UNL1        0.0000
     16 C          63.0667   85.6157    8.6930 C.ar    1  UNL1        0.0000
     17 C          62.0098   86.5667    9.1709 C.ar    1  UNL1        0.0012
     18 C          62.2625   87.4257   10.3744 C.ar    1  UNL1        0.0146
     19 C          66.2424   92.8538   12.2080 C.3     1  UNL1        0.1390
     20 N          66.6009   93.6742   11.0045 N.ar    1  UNL1       -0.2273
     21 C          65.8746   94.8943   10.5210 C.ar    1  UNL1        0.1975
     22 N          66.5734   95.3927    9.2909 N.ar    1  UNL1       -0.2007
     23 C          67.7317   94.4805    9.0141 C.ar    1  UNL1        0.2210
     24 N          67.7486   93.4184   10.0731 N.ar    1  UNL1       -0.1449
     25 C          67.0799   92.9379   13.4496 C.3     1  UNL1        0.1141
     26 C          67.7255   91.6291   13.1028 C.3     1  UNL1        0.0134
     27 C          66.4343   94.2467   13.7963 C.3     1  UNL1        0.0134
     28 C          67.9173   93.0220   14.6912 C.2     1  UNL1        0.3182
     29 O          69.4053   92.8529   14.6051 O.2     1  UNL1       -0.2501
     30 C          66.0882   92.4516   16.4459 C.3     1  UNL1        0.2556
     31 O          67.2668   93.2753   16.0189 O.3     1  UNL1       -0.4444
@<TRIPOS>BOND
     1    30    31    1
     2    31    28    1
     3    28    29    2
     4    28    25    1
     5    25    26    1
     6    25    27    1
     7    25    19    1
     8    19     1    1
     9     1     2   ar
    10     2     3   ar
    11     3     4   ar
    12     4     7    1
    13     7     9    1
    14     9    10   ar
    15    10    11   ar
    16    11    12   ar
    17    12    13   ar
    18    13    14   ar
    19    14    15   ar
    20    15    16   ar
    21    16    17   ar
    22    17    18   ar
    23     4     5   ar
    24     5     6   ar
    25    19    20    1
    26    20    21   ar
    27    21    22   ar
    28    22    23   ar
    29    23    24   ar
    30     6     1   ar
    31    24    20   ar
    32    18     9   ar
    33    17    12   ar
    34     7     8    1
@<TRIPOS>MOLECULE
*****
 31 34 0 0 0
SMALL
GASTEIGER

@<TRIPOS>ATOM
      1 C          65.0804   91.7036   12.1258 C.ar    1  UNL1        0.0005
      2 C          64.7725   90.6651   13.1635 C.ar    1  UNL1       -0.0011
      3 C          63.6904   89.6561   12.9168 C.ar    1  UNL1        0.0143
      4 C          62.9162   89.6855   11.6324 C.ar    1  UNL1        0.0483
      5 C          63.2241   90.7240   10.5946 C.ar    1  UNL1        0.0143
      6 C          64.3062   91.7330   10.8414 C.ar    1  UNL1       -0.0011
      7 N          61.8341   88.6764   11.3856 N.pl3   1  UNL1       -0.3125
      8 H          60.8887   88.9381   11.4690 H       1  UNL1        0.1522
      9 C          62.1925   87.2686   11.0119 C.ar    1  UNL1        0.0483
     10 C          62.2974   86.8798    9.5669 C.ar    1  UNL1        0.0146
     11 C          62.6558   85.4720    9.1931 C.ar    1  UNL1        0.0013
     12 C          62.9093   84.4530   10.2643 C.ar    1  UNL1        0.0001
     13 C          63.2676   83.0452    9.8905 C.ar    1  UNL1        0.0000
     14 C          63.5211   82.0263   10.9617 C.ar    1  UNL1        0.0000
     15 C          63.4162   82.4151   12.4066 C.ar    1  UNL1        0.0000
     16 C          63.0578   83.8228   12.7804 C.ar    1  UNL1        0.0000
     17 C          62.8044   84.8418   11.7092 C.ar    1  UNL1        0.0012
     18 C          62.4460   86.2496   12.0830 C.ar    1  UNL1        0.0146
     19 C          66.1625   92.7126   12.3726 C.3     1  UNL1        0.1390
     20 N          66.8113   92.8018   13.7220 N.ar    1  UNL1       -0.2273
     21 C          68.2406   92.4730   14.0365 C.ar    1  UNL1        0.1975
     22 N          68.4575   92.7034   15.5028 N.ar    1  UNL1       -0.2007
     23 C          67.1621   93.1745   16.0945 C.ar    1  UNL1        0.2210
     24 N          66.1447   93.2353   14.9939 N.ar    1  UNL1       -0.1449
     25 C          66.5958   93.6326   11.2698 C.3     1  UNL1        0.1141
     26 C          67.2075   92.4723   10.5422 C.3     1  UNL1        0.0134
     27 C          65.9841   94.7929   11.9974 C.3     1  UNL1        0.0134
     28 C          67.0290   94.5525   10.1671 C.2     1  UNL1        0.3182
     29 O          68.3839   94.3906    9.5441 O.2     1  UNL1       -0.2501
     30 C          66.4078   96.3647    8.4121 C.3     1  UNL1        0.2556
     31 O          66.1073   95.6344    9.6873 O.3     1  UNL1       -0.4444
@<TRIPOS>BOND
     1    30    31    1
     2    31    28    1
     3    28    29    2
     4    28    25    1
     5    25    26    1
     6    25    27    1
     7    25    19    1
     8    19     1    1
     9     1     2   ar
    10     2     3   ar
    11     3     4   ar
    12     4     7    1
    13     7     9    1
    14     9    10   ar
    15    10    11   ar
    16    11    12   ar
    17    12    13   ar
    18    13    14   ar
    19    14    15   ar
    20    15    16   ar
    21    16    17   ar
    22    17    18   ar
    23     4     5   ar
    24     5     6   ar
    25    19    20    1
    26    20    21   ar
    27    21    22   ar
    28    22    23   ar
    29    23    24   ar
    30     6     1   ar
    31    24    20   ar
    32    18     9   ar
    33    17    12   ar
    34     7     8    1
@<TRIPOS>MOLECULE
*****
 31 34 0 0 0
SMALL
GASTEIGER

@<TRIPOS>ATOM
      1 C          65.0823   91.9499   12.0680 C.ar    1  UNL1        0.0005
      2 C          64.4149   91.9621   10.7248 C.ar    1  UNL1       -0.0011
      3 C          63.3330   90.9702   10.4158 C.ar    1  UNL1        0.0143
      4 C          62.9184   89.9661   11.4501 C.ar    1  UNL1        0.0483
      5 C          63.5858   89.9539   12.7935 C.ar    1  UNL1        0.0143
      6 C          64.6678   90.9458   13.1024 C.ar    1  UNL1       -0.0011
      7 N          61.8364   88.9742   11.1412 N.pl3   1  UNL1       -0.3125
      8 H          60.8928   89.2547   11.1554 H       1  UNL1        0.1522
      9 C          62.1921   87.5550   10.8107 C.ar    1  UNL1        0.0483
     10 C          62.2436   87.1085    9.3796 C.ar    1  UNL1        0.0146
     11 C          62.5993   85.6893    9.0490 C.ar    1  UNL1        0.0013
     12 C          62.9035   84.7165   10.1496 C.ar    1  UNL1        0.0001
     13 C          63.2592   83.2973    9.8190 C.ar    1  UNL1        0.0000
     14 C          63.5635   82.3246   10.9195 C.ar    1  UNL1        0.0000
     15 C          63.5120   82.7710   12.3506 C.ar    1  UNL1        0.0000
     16 C          63.1563   84.1902   12.6812 C.ar    1  UNL1        0.0000
     17 C          62.8521   85.1630   11.5807 C.ar    1  UNL1        0.0012
     18 C          62.4964   86.5822   11.9112 C.ar    1  UNL1        0.0146
     19 C          66.1643   92.9418   12.3770 C.3     1  UNL1        0.1390
     20 N          66.3092   94.1785   11.5405 N.ar    1  UNL1       -0.2273
     21 C          66.8268   94.2357   10.1338 C.ar    1  UNL1        0.1975
     22 N          66.7995   95.6676    9.6878 N.ar    1  UNL1       -0.2007
     23 C          66.2650   96.4954   10.8189 C.ar    1  UNL1        0.2210
     24 N          65.9620   95.5750   11.9639 N.ar    1  UNL1       -0.1449
     25 C          67.1014   92.6970   13.5224 C.3     1  UNL1        0.1141
     26 C          66.2387   93.5448   14.4095 C.3     1  UNL1        0.0134
     27 C          67.9642   91.8492   12.6354 C.3     1  UNL1        0.0134
     28 C          68.0385   92.4522   14.6678 C.2     1  UNL1        0.3182
     29 O          67.7924   91.3088   15.6070 O.2     1  UNL1       -0.2501
     30 C          69.3146   94.1972   16.1088 C.3     1  UNL1        0.2556
     31 O          69.2218   93.3508   14.8740 O.3     1  UNL1       -0.4444
@<TRIPOS>BOND
     1    30    31    1
     2    31    28    1
     3    28    29    2
     4    28    25    1
     5    25    26    1
     6    25    27    1
     7    25    19    1
     8    19     1    1
     9     1     2   ar
    10     2     3   ar
    11     3     4   ar
    12     4     7    1
    13     7     9    1
    14     9    10   ar
    15    10    11   ar
    16    11    12   ar
    17    12    13   ar
    18    13    14   ar
    19    14    15   ar
    20    15    16   ar
    21    16    17   ar
    22    17    18   ar
    23     4     5   ar
    24     5     6   ar
    25    19    20    1
    26    20    21   ar
    27    21    22   ar
    28    22    23   ar
    29    23    24   ar
    30     6     1   ar
    31    24    20   ar
    32    18     9   ar
    33    17    12   ar
    34     7     8    1
@<TRIPOS>MOLECULE
*****
 31 34 0 0 0
SMALL
GASTEIGER

@<TRIPOS>ATOM
      1 C          65.3300   91.9861   12.4849 C.ar    1  UNL1        0.0005
      2 C          64.3995   91.9090   11.3110 C.ar    1  UNL1       -0.0011
      3 C          63.1905   91.0230   11.3692 C.ar    1  UNL1        0.0143
      4 C          62.9121   90.2141   12.6013 C.ar    1  UNL1        0.0483
      5 C          63.8427   90.2911   13.7753 C.ar    1  UNL1        0.0143
      6 C          65.0517   91.1771   13.7171 C.ar    1  UNL1       -0.0011
      7 N          61.7032   89.3280   12.6594 N.pl3   1  UNL1       -0.3125
      8 H          61.1492   89.3040   13.4729 H       1  UNL1        0.1522
      9 C          61.3382   88.4787   11.4781 C.ar    1  UNL1        0.0483
     10 C          61.6998   87.0230   11.4607 C.ar    1  UNL1        0.0146
     11 C          61.3349   86.1736   10.2795 C.ar    1  UNL1        0.0013
     12 C          60.6085   86.7799    9.1155 C.ar    1  UNL1        0.0001
     13 C          60.2436   85.9306    7.9342 C.ar    1  UNL1        0.0000
     14 C          59.5172   86.5369    6.7704 C.ar    1  UNL1        0.0000
     15 C          59.1557   87.9926    6.7877 C.ar    1  UNL1        0.0000
     16 C          59.5206   88.8419    7.9690 C.ar    1  UNL1        0.0000
     17 C          60.2470   88.2356    9.1329 C.ar    1  UNL1        0.0012
     18 C          60.6119   89.0850   10.3142 C.ar    1  UNL1        0.0146
     19 C          66.5390   92.8721   12.4267 C.3     1  UNL1        0.1390
     20 N          67.4228   93.0150   13.6303 N.ar    1  UNL1       -0.2273
     21 C          68.7347   92.3211   13.8481 C.ar    1  UNL1        0.1975
     22 N          69.2725   92.7541   15.1797 N.ar    1  UNL1       -0.2007
     23 C          68.2930   93.7155   15.7849 C.ar    1  UNL1        0.2210
     24 N          67.1498   93.8767   14.8273 N.ar    1  UNL1       -0.1449
     25 C          66.8642   93.6153   11.1650 C.3     1  UNL1        0.1141
     26 C          67.4788   92.3729   10.5916 C.3     1  UNL1        0.0134
     27 C          66.2496   94.8576   11.7384 C.3     1  UNL1        0.0134
     28 C          67.1893   94.3585    9.9033 C.2     1  UNL1        0.3182
     29 O          68.2205   93.8166    8.9582 O.2     1  UNL1       -0.2501
     30 C          66.8613   96.4253    8.3635 C.3     1  UNL1        0.2556
     31 O          66.4833   95.6435    9.5866 O.3     1  UNL1       -0.4444
@<TRIPOS>BOND
     1    30    31    1
     2    31    28    1
     3    28    29    2
     4    28    25    1
     5    25    26    1
     6    25    27    1
     7    25    19    1
     8    19     1    1
     9     1     2   ar
    10     2     3   ar
    11     3     4   ar
    12     4     7    1
    13     7     9    1
    14     9    10   ar
    15    10    11   ar
    16    11    12   ar
    17    12    13   ar
    18    13    14   ar
    19    14    15   ar
    20    15    16   ar
    21    16    17   ar
    22    17    18   ar
    23     4     5   ar
    24     5     6   ar
    25    19    20    1
    26    20    21   ar
    27    21    22   ar
    28    22    23   ar
    29    23    24   ar
    30     6     1   ar
    31    24    20   ar
    32    18     9   ar
    33    17    12   ar
    34     7     8    1
