@<TRIPOS>MOLECULE
*****
 22 25 0 0 0
SMALL
GASTEIGER

@<TRIPOS>ATOM
      1 F          66.3777   93.2000   13.7111 F       1  UNL1       -0.2084
      2 C          65.4750   92.0465   13.3875 C.2     1  UNL1        0.1267
      3 C          65.2347   90.9732   14.4072 C.2     1  UNL1        0.0296
      4 C          64.3320   89.8197   14.0836 C.2     1  UNL1        0.0521
      5 C          63.6696   89.7397   12.7401 C.2     1  UNL1        0.2323
      6 N          62.7360   88.7307   12.1399 N.2     1  UNL1       -0.0308
      7 C          62.3993   89.1806   10.7491 C.2     1  UNL1        0.3752
      8 N          63.1248   90.4676   10.4898 N.2     1  UNL1       -0.0346
      9 C          63.9099   90.8132   11.7204 C.2     1  UNL1        0.2207
     10 C          64.8126   91.9666   12.0440 C.3     1  UNL1        0.1357
     11 C          61.4957   88.4685    9.7866 C.ar    1  UNL1        0.0884
     12 C          61.6158   86.9847    9.6028 C.ar    1  UNL1        0.0077
     13 C          60.7121   86.2727    8.6402 C.ar    1  UNL1        0.0003
     14 C          59.6884   87.0444    7.8615 C.ar    1  UNL1        0.0000
     15 C          59.5683   88.5283    8.0453 C.ar    1  UNL1        0.0003
     16 C          60.4720   89.2403    9.0079 C.ar    1  UNL1        0.0077
     17 C          65.0529   93.0401   11.0243 C.3     1  UNL1        0.0873
     18 N          66.3782   93.1293   10.3273 N.3     1  UNL1       -0.2719
     19 C          66.8535   94.2722    9.4800 C.3     1  UNL1        0.0722
     20 C          68.2298   93.9406    8.9844 C.3     1  UNL1        0.0188
     21 C          68.6051   92.5927    9.5253 C.3     1  UNL1        0.0188
     22 C          67.4607   92.0914   10.3553 C.3     1  UNL1        0.0722
@<TRIPOS>BOND
     1     1     2    1
     2     2     3    2
     3     3     4    1
     4     4     5    2
     5     5     6    1
     6     6     7    2
     7     7    11    1
     8    11    12   ar
     9    12    13   ar
    10    13    14   ar
    11    14    15   ar
    12    15    16   ar
    13     7     8    1
    14     8     9    2
    15     9    10    1
    16    10    17    1
    17    17    18    1
    18    18    19    1
    19    19    20    1
    20    20    21    1
    21    21    22    1
    22    10     2    1
    23    22    18    1
    24     9     5    1
    25    16    11   ar
@<TRIPOS>MOLECULE
*****
 22 25 0 0 0
SMALL
GASTEIGER

@<TRIPOS>ATOM
      1 F          65.3292   91.7653   15.8469 F       1  UNL1       -0.2084
      2 C          64.8409   91.4786   14.4579 C.2     1  UNL1        0.1267
      3 C          65.3840   92.2568   13.2963 C.2     1  UNL1        0.0296
      4 C          64.8957   91.9700   11.9073 C.2     1  UNL1        0.0521
      5 C          63.8641   90.9051   11.6800 C.2     1  UNL1        0.2323
      6 N          63.1974   90.4034   10.4335 N.2     1  UNL1       -0.0308
      7 C          62.2421   89.3151   10.8247 C.2     1  UNL1        0.3752
      8 N          62.3184   89.1442   12.3130 N.2     1  UNL1       -0.0346
      9 C          63.3209   90.1269   12.8416 C.2     1  UNL1        0.2207
     10 C          63.8093   90.4136   14.2305 C.3     1  UNL1        0.1357
     11 C          61.3645   88.5346    9.8915 C.ar    1  UNL1        0.0884
     12 C          60.4084   89.2519    8.9853 C.ar    1  UNL1        0.0077
     13 C          59.5309   88.4714    8.0521 C.ar    1  UNL1        0.0003
     14 C          59.6094   86.9737    8.0252 C.ar    1  UNL1        0.0000
     15 C          60.5656   86.2564    8.9315 C.ar    1  UNL1        0.0003
     16 C          61.4431   87.0370    9.8646 C.ar    1  UNL1        0.0077
     17 C          63.2661   89.6354   15.3922 C.3     1  UNL1        0.0873
     18 N          63.5961   88.1796   15.5397 N.3     1  UNL1       -0.2719
     19 C          64.4467   87.3695   14.6069 C.3     1  UNL1        0.0722
     20 C          64.5098   85.9676   15.1366 C.3     1  UNL1        0.0188
     21 C          63.6980   85.9113   16.3968 C.3     1  UNL1        0.0188
     22 C          63.1334   87.2784   16.6458 C.3     1  UNL1        0.0722
@<TRIPOS>BOND
     1     1     2    1
     2     2     3    2
     3     3     4    1
     4     4     5    2
     5     5     6    1
     6     6     7    2
     7     7    11    1
     8    11    12   ar
     9    12    13   ar
    10    13    14   ar
    11    14    15   ar
    12    15    16   ar
    13     7     8    1
    14     8     9    2
    15     9    10    1
    16    10    17    1
    17    17    18    1
    18    18    19    1
    19    19    20    1
    20    20    21    1
    21    21    22    1
    22    10     2    1
    23    22    18    1
    24     9     5    1
    25    16    11   ar
@<TRIPOS>MOLECULE
*****
 22 25 0 0 0
SMALL
GASTEIGER

@<TRIPOS>ATOM
      1 F          64.2243   81.3529   14.0842 F       1  UNL1       -0.2084
      2 C          63.9436   82.1899   12.8714 C.2     1  UNL1        0.1267
      3 C          64.6143   81.8709   11.5683 C.2     1  UNL1        0.0296
      4 C          64.3337   82.7079   10.3555 C.2     1  UNL1        0.0521
      5 C          63.3822   83.8639   10.4460 C.2     1  UNL1        0.2323
      6 N          62.9129   84.8597    9.4271 N.2     1  UNL1       -0.0308
      7 C          61.9522   85.7942   10.1006 C.2     1  UNL1        0.3752
      8 N          61.8276   85.3760   11.5357 N.2     1  UNL1       -0.0346
      9 C          62.7115   84.1830   11.7492 C.2     1  UNL1        0.2207
     10 C          62.9922   83.3460   12.9619 C.3     1  UNL1        0.1357
     11 C          61.2408   86.9449    9.4527 C.ar    1  UNL1        0.0884
     12 C          60.2474   86.6919    8.3576 C.ar    1  UNL1        0.0077
     13 C          59.5361   87.8427    7.7097 C.ar    1  UNL1        0.0003
     14 C          59.8180   89.2465    8.1569 C.ar    1  UNL1        0.0000
     15 C          60.8113   89.4995    9.2520 C.ar    1  UNL1        0.0003
     16 C          61.5227   88.3487    9.8999 C.ar    1  UNL1        0.0077
     17 C          62.3214   83.6651   14.2651 C.3     1  UNL1        0.0873
     18 N          62.8293   84.7929   15.1136 N.3     1  UNL1       -0.2719
     19 C          63.9454   85.7300   14.7585 C.3     1  UNL1        0.0722
     20 C          64.1162   86.6979   15.8916 C.3     1  UNL1        0.0188
     21 C          63.1056   86.3590   16.9471 C.3     1  UNL1        0.0188
     22 C          62.3103   85.1816   16.4662 C.3     1  UNL1        0.0722
@<TRIPOS>BOND
     1     1     2    1
     2     2     3    2
     3     3     4    1
     4     4     5    2
     5     5     6    1
     6     6     7    2
     7     7    11    1
     8    11    12   ar
     9    12    13   ar
    10    13    14   ar
    11    14    15   ar
    12    15    16   ar
    13     7     8    1
    14     8     9    2
    15     9    10    1
    16    10    17    1
    17    17    18    1
    18    18    19    1
    19    19    20    1
    20    20    21    1
    21    21    22    1
    22    10     2    1
    23    22    18    1
    24     9     5    1
    25    16    11   ar
@<TRIPOS>MOLECULE
*****
 22 25 0 0 0
SMALL
GASTEIGER

@<TRIPOS>ATOM
      1 F          59.3937   89.8739    7.7948 F       1  UNL1       -0.2084
      2 C          59.9721   88.6218    8.3848 C.2     1  UNL1        0.1267
      3 C          59.9092   87.3335    7.6192 C.2     1  UNL1        0.0296
      4 C          60.4875   86.0814    8.2092 C.2     1  UNL1        0.0521
      5 C          61.1287   86.1179    9.5647 C.2     1  UNL1        0.2323
      6 N          61.7789   85.0522   10.3964 N.2     1  UNL1       -0.0308
      7 C          62.2436   85.6821   11.6760 C.2     1  UNL1        0.3752
      8 N          61.8806   87.1369   11.6352 N.2     1  UNL1       -0.0346
      9 C          61.1916   87.4063   10.3303 C.2     1  UNL1        0.2207
     10 C          60.6132   88.6582    9.7403 C.3     1  UNL1        0.1357
     11 C          62.9476   84.9803   12.7993 C.ar    1  UNL1        0.0884
     12 C          62.7798   83.5009   12.9817 C.ar    1  UNL1        0.0077
     13 C          63.4840   82.7992   14.1051 C.ar    1  UNL1        0.0003
     14 C          64.3559   83.5767   15.0459 C.ar    1  UNL1        0.0000
     15 C          64.5237   85.0561   14.8634 C.ar    1  UNL1        0.0003
     16 C          63.8195   85.7578   13.7401 C.ar    1  UNL1        0.0077
     17 C          60.6761   89.9466   10.5059 C.3     1  UNL1        0.0873
     18 N          62.0029   90.5029   10.9303 N.3     1  UNL1       -0.2719
     19 C          62.9748   91.2329   10.0513 C.3     1  UNL1        0.0722
     20 C          64.1633   91.6080   10.8859 C.3     1  UNL1        0.0188
     21 C          63.9260   91.1098   12.2808 C.3     1  UNL1        0.0188
     22 C          62.5908   90.4268   12.3081 C.3     1  UNL1        0.0722
@<TRIPOS>BOND
     1     1     2    1
     2     2     3    2
     3     3     4    1
     4     4     5    2
     5     5     6    1
     6     6     7    2
     7     7    11    1
     8    11    12   ar
     9    12    13   ar
    10    13    14   ar
    11    14    15   ar
    12    15    16   ar
    13     7     8    1
    14     8     9    2
    15     9    10    1
    16    10    17    1
    17    17    18    1
    18    18    19    1
    19    19    20    1
    20    20    21    1
    21    21    22    1
    22    10     2    1
    23    22    18    1
    24     9     5    1
    25    16    11   ar
@<TRIPOS>MOLECULE
*****
 22 25 0 0 0
SMALL
GASTEIGER

@<TRIPOS>ATOM
      1 F          65.4895   83.7521   14.9856 F       1  UNL1       -0.2084
      2 C          64.7277   84.8236   14.2633 C.2     1  UNL1        0.1267
      3 C          64.7177   86.2256   14.7961 C.2     1  UNL1        0.0296
      4 C          63.9559   87.2971   14.0738 C.2     1  UNL1        0.0521
      5 C          63.2042   86.9664   12.8186 C.2     1  UNL1        0.2323
      6 N          62.3701   87.8065   11.8975 N.2     1  UNL1       -0.0308
      7 C          61.8646   86.9235   10.7953 C.2     1  UNL1        0.3752
      8 N          62.3863   85.5378   11.0352 N.2     1  UNL1       -0.0346
      9 C          63.2142   85.5643   12.2857 C.2     1  UNL1        0.2207
     10 C          63.9760   84.4929   13.0081 C.3     1  UNL1        0.1357
     11 C          60.9907   87.3512    9.6535 C.ar    1  UNL1        0.0884
     12 C          60.7934   88.8100    9.3657 C.ar    1  UNL1        0.0077
     13 C          59.9196   89.2376    8.2239 C.ar    1  UNL1        0.0003
     14 C          59.2431   88.2065    7.3700 C.ar    1  UNL1        0.0000
     15 C          59.4404   86.7477    7.6579 C.ar    1  UNL1        0.0003
     16 C          60.3142   86.3201    8.7997 C.ar    1  UNL1        0.0077
     17 C          63.9860   83.0908   12.4752 C.3     1  UNL1        0.0873
     18 N          63.0246   82.0753   13.0178 N.3     1  UNL1       -0.2719
     19 C          62.9324   80.6374   12.6008 C.3     1  UNL1        0.0722
     20 C          61.8375   79.9928   13.3980 C.3     1  UNL1        0.0188
     21 C          61.2528   81.0324   14.3077 C.3     1  UNL1        0.0188
     22 C          61.9866   82.3194   14.0727 C.3     1  UNL1        0.0722
@<TRIPOS>BOND
     1     1     2    1
     2     2     3    2
     3     3     4    1
     4     4     5    2
     5     5     6    1
     6     6     7    2
     7     7    11    1
     8    11    12   ar
     9    12    13   ar
    10    13    14   ar
    11    14    15   ar
    12    15    16   ar
    13     7     8    1
    14     8     9    2
    15     9    10    1
    16    10    17    1
    17    17    18    1
    18    18    19    1
    19    19    20    1
    20    20    21    1
    21    21    22    1
    22    10     2    1
    23    22    18    1
    24     9     5    1
    25    16    11   ar
@<TRIPOS>MOLECULE
*****
 22 25 0 0 0
SMALL
GASTEIGER

@<TRIPOS>ATOM
      1 F          63.5501   91.1395   12.8084 F       1  UNL1       -0.2084
      2 C          63.1686   89.7936   12.2669 C.2     1  UNL1        0.1267
      3 C          62.4174   89.6912   10.9728 C.2     1  UNL1        0.0296
      4 C          62.0359   88.3453   10.4313 C.2     1  UNL1        0.0521
      5 C          62.4058   87.1018   11.1842 C.2     1  UNL1        0.2323
      6 N          62.1674   85.6483   10.9003 N.2     1  UNL1       -0.0308
      7 C          62.7713   84.8524   12.0191 C.2     1  UNL1        0.3752
      8 N          63.3830   85.8140   12.9945 N.2     1  UNL1       -0.0346
      9 C          63.1572   87.2042   12.4784 C.2     1  UNL1        0.2207
     10 C          63.5386   88.5501   13.0198 C.3     1  UNL1        0.1357
     11 C          62.7647   83.3574   12.1412 C.ar    1  UNL1        0.0884
     12 C          62.3897   82.7129   13.4427 C.ar    1  UNL1        0.0077
     13 C          62.3831   81.2178   13.5648 C.ar    1  UNL1        0.0003
     14 C          62.7514   80.3673   12.3853 C.ar    1  UNL1        0.0000
     15 C          63.1264   81.0119   11.0838 C.ar    1  UNL1        0.0003
     16 C          63.1330   82.5070   10.9618 C.ar    1  UNL1        0.0077
     17 C          64.2899   88.6524   14.3140 C.3     1  UNL1        0.0873
     18 N          63.7684   87.9641   15.5405 N.3     1  UNL1       -0.2719
     19 C          63.0830   88.6261   16.6989 C.3     1  UNL1        0.0722
     20 C          62.7317   87.5640   17.6982 C.3     1  UNL1        0.0188
     21 C          63.2000   86.2456   17.1573 C.3     1  UNL1        0.0188
     22 C          63.8407   86.4929   15.8238 C.3     1  UNL1        0.0722
@<TRIPOS>BOND
     1     1     2    1
     2     2     3    2
     3     3     4    1
     4     4     5    2
     5     5     6    1
     6     6     7    2
     7     7    11    1
     8    11    12   ar
     9    12    13   ar
    10    13    14   ar
    11    14    15   ar
    12    15    16   ar
    13     7     8    1
    14     8     9    2
    15     9    10    1
    16    10    17    1
    17    17    18    1
    18    18    19    1
    19    19    20    1
    20    20    21    1
    21    21    22    1
    22    10     2    1
    23    22    18    1
    24     9     5    1
    25    16    11   ar
@<TRIPOS>MOLECULE
*****
 22 25 0 0 0
SMALL
GASTEIGER

@<TRIPOS>ATOM
      1 F          64.8598   85.1268   15.9333 F       1  UNL1       -0.2084
      2 C          64.3029   86.0185   14.8633 C.2     1  UNL1        0.1267
      3 C          64.6439   87.4791   14.8516 C.2     1  UNL1        0.0296
      4 C          64.0870   88.3709   13.7817 C.2     1  UNL1        0.0521
      5 C          63.1891   87.8018   12.7234 C.2     1  UNL1        0.2323
      6 N          62.4956   88.4304   11.5513 N.2     1  UNL1       -0.0308
      7 C          61.7260   87.3582   10.8385 C.2     1  UNL1        0.3752
      8 N          61.9438   86.0669   11.5702 N.2     1  UNL1       -0.0346
      9 C          62.8480   86.3411   12.7352 C.2     1  UNL1        0.2207
     10 C          63.4049   85.4495   13.8051 C.3     1  UNL1        0.1357
     11 C          60.8860   87.5444    9.6098 C.ar    1  UNL1        0.0884
     12 C          60.3743   86.3486    8.8627 C.ar    1  UNL1        0.0077
     13 C          59.5343   86.5349    7.6340 C.ar    1  UNL1        0.0003
     14 C          59.2060   87.9170    7.1523 C.ar    1  UNL1        0.0000
     15 C          59.7177   89.1129    7.8994 C.ar    1  UNL1        0.0003
     16 C          60.5577   88.9265    9.1281 C.ar    1  UNL1        0.0077
     17 C          63.0639   83.9888   13.8168 C.3     1  UNL1        0.0873
     18 N          63.3163   83.1499   12.5993 N.3     1  UNL1       -0.2719
     19 C          62.5531   81.9215   12.2013 C.3     1  UNL1        0.0722
     20 C          63.1413   81.4045   10.9220 C.3     1  UNL1        0.0188
     21 C          64.2682   82.3134   10.5293 C.3     1  UNL1        0.0188
     22 C          64.3762   83.3921   11.5660 C.3     1  UNL1        0.0722
@<TRIPOS>BOND
     1     1     2    1
     2     2     3    2
     3     3     4    1
     4     4     5    2
     5     5     6    1
     6     6     7    2
     7     7    11    1
     8    11    12   ar
     9    12    13   ar
    10    13    14   ar
    11    14    15   ar
    12    15    16   ar
    13     7     8    1
    14     8     9    2
    15     9    10    1
    16    10    17    1
    17    17    18    1
    18    18    19    1
    19    19    20    1
    20    20    21    1
    21    21    22    1
    22    10     2    1
    23    22    18    1
    24     9     5    1
    25    16    11   ar
@<TRIPOS>MOLECULE
*****
 22 25 0 0 0
SMALL
GASTEIGER

@<TRIPOS>ATOM
      1 F          60.0275   85.9307    9.0518 F       1  UNL1       -0.2084
      2 C          60.6607   87.1951    9.5521 C.2     1  UNL1        0.1267
      3 C          60.4650   88.4795    8.8024 C.2     1  UNL1        0.0296
      4 C          61.0983   89.7439    9.3027 C.2     1  UNL1        0.0521
      5 C          61.9272   89.7239   10.5527 C.2     1  UNL1        0.2323
      6 N          62.6695   90.8042   11.2820 N.2     1  UNL1       -0.0308
      7 C          63.3240   90.1874   12.4825 C.2     1  UNL1        0.3752
      8 N          62.9862   88.7260   12.4951 N.2     1  UNL1       -0.0346
      9 C          62.1229   88.4395   11.3024 C.2     1  UNL1        0.2207
     10 C          61.4896   87.1751   10.8021 C.3     1  UNL1        0.1357
     11 C          64.1682   90.9058   13.4931 C.ar    1  UNL1        0.0884
     12 C          65.3087   91.7686   13.0403 C.ar    1  UNL1        0.0077
     13 C          66.1528   92.4870   14.0509 C.ar    1  UNL1        0.0003
     14 C          65.8566   92.3427   15.5142 C.ar    1  UNL1        0.0000
     15 C          64.7161   91.4800   15.9670 C.ar    1  UNL1        0.0003
     16 C          63.8720   90.7615   14.9564 C.ar    1  UNL1        0.0077
     17 C          61.6853   85.8907   11.5518 C.3     1  UNL1        0.0873
     18 N          62.6785   84.8796   11.0608 N.3     1  UNL1       -0.2719
     19 C          63.4173   83.8862   11.9078 C.3     1  UNL1        0.0722
     20 C          64.3027   83.0770   11.0072 C.3     1  UNL1        0.0188
     21 C          64.1112   83.5703    9.6036 C.3     1  UNL1        0.0188
     22 C          63.1074   84.6844    9.6369 C.3     1  UNL1        0.0722
@<TRIPOS>BOND
     1     1     2    1
     2     2     3    2
     3     3     4    1
     4     4     5    2
     5     5     6    1
     6     6     7    2
     7     7    11    1
     8    11    12   ar
     9    12    13   ar
    10    13    14   ar
    11    14    15   ar
    12    15    16   ar
    13     7     8    1
    14     8     9    2
    15     9    10    1
    16    10    17    1
    17    17    18    1
    18    18    19    1
    19    19    20    1
    20    20    21    1
    21    21    22    1
    22    10     2    1
    23    22    18    1
    24     9     5    1
    25    16    11   ar
@<TRIPOS>MOLECULE
*****
 22 25 0 0 0
SMALL
GASTEIGER

@<TRIPOS>ATOM
      1 F          65.0384   90.2901   15.6439 F       1  UNL1       -0.2084
      2 C          64.3387   90.1500   14.3245 C.2     1  UNL1        0.1267
      3 C          63.9407   91.3732   13.5530 C.2     1  UNL1        0.0296
      4 C          63.2410   91.2331   12.2336 C.2     1  UNL1        0.0521
      5 C          62.9393   89.8697   11.6858 C.2     1  UNL1        0.2323
      6 N          62.2664   89.4222   10.4221 N.2     1  UNL1       -0.0308
      7 C          62.2485   87.9223   10.4127 C.2     1  UNL1        0.3752
      8 N          62.9103   87.4429   11.6705 N.2     1  UNL1       -0.0346
      9 C          63.3372   88.6465   12.4574 C.2     1  UNL1        0.2207
     10 C          64.0370   88.7866   13.7767 C.3     1  UNL1        0.1357
     11 C          61.6703   87.0542    9.3346 C.ar    1  UNL1        0.0884
     12 C          62.5224   86.0116    8.6737 C.ar    1  UNL1        0.0077
     13 C          61.9441   85.1435    7.5956 C.ar    1  UNL1        0.0003
     14 C          60.5138   85.3181    7.1786 C.ar    1  UNL1        0.0000
     15 C          59.6618   86.3607    7.8396 C.ar    1  UNL1        0.0003
     16 C          60.2401   87.2288    8.9176 C.ar    1  UNL1        0.0077
     17 C          64.4349   87.5634   14.5483 C.3     1  UNL1        0.0873
     18 N          63.6587   87.1596   15.7666 N.3     1  UNL1       -0.2719
     19 C          63.2254   88.0696   16.8776 C.3     1  UNL1        0.0722
     20 C          62.4783   87.2474   17.8854 C.3     1  UNL1        0.0188
     21 C          62.4499   85.8292   17.3974 C.3     1  UNL1        0.0188
     22 C          63.1795   85.7751   16.0879 C.3     1  UNL1        0.0722
@<TRIPOS>BOND
     1     1     2    1
     2     2     3    2
     3     3     4    1
     4     4     5    2
     5     5     6    1
     6     6     7    2
     7     7    11    1
     8    11    12   ar
     9    12    13   ar
    10    13    14   ar
    11    14    15   ar
    12    15    16   ar
    13     7     8    1
    14     8     9    2
    15     9    10    1
    16    10    17    1
    17    17    18    1
    18    18    19    1
    19    19    20    1
    20    20    21    1
    21    21    22    1
    22    10     2    1
    23    22    18    1
    24     9     5    1
    25    16    11   ar
