@<TRIPOS>MOLECULE
*****
 34 36 0 0 0
SMALL
GASTEIGER

@<TRIPOS>ATOM
      1 C          63.0165   89.0459   12.0643 C.ar    1  UNL1        0.0053
      2 C          63.2929   88.4200   13.3991 C.ar    1  UNL1        0.0033
      3 C          64.1893   89.1137   14.3815 C.ar    1  UNL1        0.0382
      4 C          64.8093   90.4334   14.0291 C.ar    1  UNL1        0.1524
      5 C          64.5329   91.0593   12.6943 C.ar    1  UNL1        0.0881
      6 C          63.6365   90.3655   11.7119 C.ar    1  UNL1        0.0181
      7 N          65.1529   92.3789   12.3419 N.am    1  UNL1       -0.2514
      8 C          66.0493   93.0726   13.3243 C.2     1  UNL1        0.2657
      9 O          66.6693   94.3923   12.9719 O.2     1  UNL1       -0.2708
     10 C          66.3257   92.4467   14.6592 C.3     1  UNL1        0.2012
     11 C          66.8848   92.2561   16.0380 C.3     1  UNL1        0.0532
     12 C          67.1399   93.7001   14.7856 C.3     1  UNL1        0.0532
     13 O          65.7057   91.1271   15.0116 O.3     1  UNL1       -0.4727
     14 C          62.0958   86.8538   11.0169 C.ar    1  UNL1        0.0645
     15 N          61.1994   86.1600   10.0345 N.ar    1  UNL1       -0.2183
     16 C          60.3273   86.9647    9.1168 C.ar    1  UNL1        0.2145
     17 N          59.4310   86.2710    8.1343 N.pl3   1  UNL1       -0.3274
     18 N          60.3517   88.4631    9.1816 N.ar    1  UNL1       -0.1995
     19 C          61.2481   89.1568   10.1641 C.ar    1  UNL1        0.1293
     20 N          61.2724   90.6552   10.2290 N.pl3   1  UNL1       -0.3425
     21 C          62.1201   88.3522   11.0817 C.ar    1  UNL1        0.0449
     22 H          59.4150   85.2875    8.0918 H       1  UNL1        0.1452
     23 H          58.8586   86.7991    7.5321 H       1  UNL1        0.1452
     24 H          60.7001   91.1834    9.6267 H       1  UNL1        0.1437
     25 H          61.8607   91.1106   10.8738 H       1  UNL1        0.1437
     26 C          62.5915   84.6393   12.2820 C.3     1  UNL1        0.0067
     27 C          62.9679   86.0491   11.9346 C.3     1  UNL1        0.0460
     28 C          64.8765   93.0048   11.0071 C.3     1  UNL1        0.1196
     29 C          65.9952   93.2108   10.0292 C.3     1  UNL1        0.1113
     30 N          66.1544   94.5334    9.3395 N.am    1  UNL1       -0.3026
     31 C          67.5255   95.0613    9.0372 C.2     1  UNL1        0.2230
     32 C          67.6848   96.3837    8.3475 C.3     1  UNL1        0.0946
     33 O          68.7374   94.2666    9.4245 O.2     1  UNL1       -0.2751
     34 H          65.3590   95.0549    9.0853 H       1  UNL1        0.1495
@<TRIPOS>BOND
     1    26    27    1
     2    27    14    1
     3    14    15   ar
     4    15    16   ar
     5    16    17    1
     6    16    18   ar
     7    18    19   ar
     8    19    20    1
     9    19    21   ar
    10    21     1    1
    11     1     2   ar
    12     2     3   ar
    13     3     4   ar
    14     4     5   ar
    15     5     6   ar
    16     5     7    1
    17     7    28    1
    18    28    29    1
    19    29    30    1
    20    30    31   am
    21    31    32    1
    22    31    33    2
    23     7     8   am
    24     8     9    2
    25     8    10    1
    26    10    11    1
    27    10    12    1
    28    10    13    1
    29    21    14   ar
    30     6     1   ar
    31    13     4    1
    32    17    22    1
    33    17    23    1
    34    20    24    1
    35    20    25    1
    36    30    34    1
@<TRIPOS>MOLECULE
*****
 34 36 0 0 0
SMALL
GASTEIGER

@<TRIPOS>ATOM
      1 C          63.2810   90.4824   12.2720 C.ar    1  UNL1        0.0053
      2 C          62.5308   91.3378   11.2946 C.ar    1  UNL1        0.0033
      3 C          61.7198   90.6986   10.2066 C.ar    1  UNL1        0.0382
      4 C          61.6592   89.2039   10.0960 C.ar    1  UNL1        0.1524
      5 C          62.4094   88.3485   11.0733 C.ar    1  UNL1        0.0881
      6 C          63.2203   88.9877   12.1613 C.ar    1  UNL1        0.0181
      7 N          62.3487   86.8538   10.9627 N.am    1  UNL1       -0.2514
      8 C          61.5378   86.2146    9.8747 C.2     1  UNL1        0.2657
      9 O          61.4771   84.7199    9.7641 O.2     1  UNL1       -0.2708
     10 C          60.7875   87.0700    8.8973 C.3     1  UNL1        0.2012
     11 C          59.9104   87.4526    7.7421 C.3     1  UNL1        0.0532
     12 C          60.4222   85.7082    8.3855 C.3     1  UNL1        0.0532
     13 O          60.8482   88.5647    9.0079 O.3     1  UNL1       -0.4727
     14 C          65.2174   92.0495   13.0101 C.ar    1  UNL1        0.0645
     15 N          66.0283   92.6887   14.0980 N.ar    1  UNL1       -0.2183
     16 C          65.7139   92.4000   15.5361 C.ar    1  UNL1        0.2145
     17 N          66.5248   93.0392   16.6240 N.pl3   1  UNL1       -0.3274
     18 N          64.5885   91.4721   15.8860 N.ar    1  UNL1       -0.1995
     19 C          63.7775   90.8329   14.7980 C.ar    1  UNL1        0.1293
     20 N          62.6521   89.9050   15.1479 N.pl3   1  UNL1       -0.3425
     21 C          64.0919   91.1216   13.3600 C.ar    1  UNL1        0.0449
     22 H          67.2635   93.6482   16.3943 H       1  UNL1        0.1452
     23 H          66.3185   92.8497   17.5678 H       1  UNL1        0.1452
     24 H          62.4457   89.7155   16.0917 H       1  UNL1        0.1437
     25 H          62.1198   89.4855   14.4338 H       1  UNL1        0.1437
     26 C          65.7816   93.7488   11.1275 C.3     1  UNL1        0.0067
     27 C          65.5318   92.3382   11.5720 C.3     1  UNL1        0.0460
     28 C          63.0989   85.9983   11.9401 C.3     1  UNL1        0.1196
     29 C          62.4044   84.8610   12.6287 C.3     1  UNL1        0.1113
     30 N          62.6417   83.4515   12.1737 N.am    1  UNL1       -0.3026
     31 C          62.4989   82.3162   13.1437 C.2     1  UNL1        0.2230
     32 C          62.7361   80.9067   12.6887 C.3     1  UNL1        0.0946
     33 O          62.1190   82.5905   14.5687 O.2     1  UNL1       -0.2751
     34 H          62.8910   83.2715   11.2385 H       1  UNL1        0.1495
@<TRIPOS>BOND
     1    26    27    1
     2    27    14    1
     3    14    15   ar
     4    15    16   ar
     5    16    17    1
     6    16    18   ar
     7    18    19   ar
     8    19    20    1
     9    19    21   ar
    10    21     1    1
    11     1     2   ar
    12     2     3   ar
    13     3     4   ar
    14     4     5   ar
    15     5     6   ar
    16     5     7    1
    17     7    28    1
    18    28    29    1
    19    29    30    1
    20    30    31   am
    21    31    32    1
    22    31    33    2
    23     7     8   am
    24     8     9    2
    25     8    10    1
    26    10    11    1
    27    10    12    1
    28    10    13    1
    29    21    14   ar
    30     6     1   ar
    31    13     4    1
    32    17    22    1
    33    17    23    1
    34    20    24    1
    35    20    25    1
    36    30    34    1
@<TRIPOS>MOLECULE
*****
 34 36 0 0 0
SMALL
GASTEIGER

@<TRIPOS>ATOM
      1 C          64.4345   91.0204   12.8382 C.ar    1  UNL1        0.0053
      2 C          63.6546   91.7724   11.8008 C.ar    1  UNL1        0.0033
      3 C          62.6856   91.0444   10.9172 C.ar    1  UNL1        0.0382
      4 C          62.4964   89.5643   11.0709 C.ar    1  UNL1        0.1524
      5 C          63.2762   88.8123   12.1084 C.ar    1  UNL1        0.0881
      6 C          64.2452   89.5403   12.9920 C.ar    1  UNL1        0.0181
      7 N          63.0870   87.3322   12.2622 N.am    1  UNL1       -0.2514
      8 C          62.1179   86.6042   11.3785 C.2     1  UNL1        0.2657
      9 O          61.9287   85.1242   11.5323 O.2     1  UNL1       -0.2708
     10 C          61.3380   87.3562   10.3410 C.3     1  UNL1        0.2012
     11 C          60.3765   87.6269    9.2220 C.3     1  UNL1        0.0532
     12 C          60.8149   85.9702   10.1062 C.3     1  UNL1        0.0532
     13 O          61.5272   88.8363   10.1872 O.3     1  UNL1       -0.4727
     14 C          66.6238   92.3886   13.1294 C.ar    1  UNL1        0.0645
     15 N          67.5929   93.1166   14.0130 N.ar    1  UNL1       -0.2183
     16 C          67.3418   93.2045   15.4893 C.ar    1  UNL1        0.2145
     17 N          68.3109   93.9325   16.3729 N.pl3   1  UNL1       -0.3274
     18 N          66.1215   92.5642   16.0818 N.ar    1  UNL1       -0.1995
     19 C          65.1524   91.8362   15.1981 C.ar    1  UNL1        0.1293
     20 N          63.9322   91.1960   15.7907 N.pl3   1  UNL1       -0.3425
     21 C          65.4036   91.7484   13.7219 C.ar    1  UNL1        0.0449
     22 H          69.1117   94.3526   15.9839 H       1  UNL1        0.1452
     23 H          68.1460   93.9901   17.3418 H       1  UNL1        0.1452
     24 H          63.7673   91.2536   16.7596 H       1  UNL1        0.1437
     25 H          63.2961   90.7182   15.2107 H       1  UNL1        0.1437
     26 C          66.6500   93.5006   10.7814 C.3     1  UNL1        0.0067
     27 C          66.8749   92.3008   11.6531 C.3     1  UNL1        0.0460
     28 C          63.8668   86.5802   13.2996 C.3     1  UNL1        0.1196
     29 C          64.2040   87.2360   14.6058 C.3     1  UNL1        0.1113
     30 N          63.8184   86.5774   15.8972 N.am    1  UNL1       -0.3026
     31 C          63.0100   87.3310   16.9113 C.2     1  UNL1        0.2230
     32 C          62.6244   86.6725   18.2027 C.3     1  UNL1        0.0946
     33 O          62.5871   88.7433   16.6340 O.2     1  UNL1       -0.2751
     34 H          64.0960   85.6505   16.0792 H       1  UNL1        0.1495
@<TRIPOS>BOND
     1    26    27    1
     2    27    14    1
     3    14    15   ar
     4    15    16   ar
     5    16    17    1
     6    16    18   ar
     7    18    19   ar
     8    19    20    1
     9    19    21   ar
    10    21     1    1
    11     1     2   ar
    12     2     3   ar
    13     3     4   ar
    14     4     5   ar
    15     5     6   ar
    16     5     7    1
    17     7    28    1
    18    28    29    1
    19    29    30    1
    20    30    31   am
    21    31    32    1
    22    31    33    2
    23     7     8   am
    24     8     9    2
    25     8    10    1
    26    10    11    1
    27    10    12    1
    28    10    13    1
    29    21    14   ar
    30     6     1   ar
    31    13     4    1
    32    17    22    1
    33    17    23    1
    34    20    24    1
    35    20    25    1
    36    30    34    1
@<TRIPOS>MOLECULE
*****
 34 36 0 0 0
SMALL
GASTEIGER

@<TRIPOS>ATOM
      1 C          62.7722   88.9508   11.9306 C.ar    1  UNL1        0.0053
      2 C          62.9975   88.3667   13.2937 C.ar    1  UNL1        0.0033
      3 C          63.8884   89.0712   14.2735 C.ar    1  UNL1        0.0382
      4 C          64.5539   90.3596   13.8902 C.ar    1  UNL1        0.1524
      5 C          64.3286   90.9437   12.5271 C.ar    1  UNL1        0.0881
      6 C          63.4377   90.2392   11.5473 C.ar    1  UNL1        0.0181
      7 N          64.9941   92.2322   12.1438 N.am    1  UNL1       -0.2514
      8 C          65.8850   92.9366   13.1236 C.2     1  UNL1        0.2657
      9 O          66.5505   94.2251   12.7403 O.2     1  UNL1       -0.2708
     10 C          66.1104   92.3526   14.4868 C.3     1  UNL1        0.2012
     11 C          66.6295   92.1973   15.8855 C.3     1  UNL1        0.0532
     12 C          66.9561   93.5871   14.5893 C.3     1  UNL1        0.0532
     13 O          65.4448   91.0641   14.8701 O.3     1  UNL1       -0.4727
     14 C          60.7815   88.9985   10.2618 C.ar    1  UNL1        0.0645
     15 N          59.8906   88.2942    9.2819 N.ar    1  UNL1       -0.2183
     16 C          60.0995   86.8375    8.9910 C.ar    1  UNL1        0.2145
     17 N          59.2086   86.1331    8.0111 N.pl3   1  UNL1       -0.3274
     18 N          61.1993   86.0853    9.6799 N.ar    1  UNL1       -0.1995
     19 C          62.0902   86.7897   10.6598 C.ar    1  UNL1        0.1293
     20 N          63.1900   86.0375   11.3488 N.pl3   1  UNL1       -0.3425
     21 C          61.8813   88.2463   10.9507 C.ar    1  UNL1        0.0449
     22 H          58.4868   86.6269    7.5590 H       1  UNL1        0.1452
     23 H          59.3457   85.1771    7.8202 H       1  UNL1        0.1452
     24 H          63.3271   85.0815   11.1578 H       1  UNL1        0.1437
     25 H          63.7747   86.4998   11.9919 H       1  UNL1        0.1437
     26 C          59.4467   90.8880   11.4444 C.3     1  UNL1        0.0067
     27 C          60.5726   90.4552   10.5527 C.3     1  UNL1        0.0460
     28 C          64.7687   92.8162   10.7807 C.3     1  UNL1        0.1196
     29 C          65.9348   93.2958    9.9681 C.3     1  UNL1        0.1113
     30 N          66.0465   94.7456    9.5997 N.am    1  UNL1       -0.3026
     31 C          67.3918   95.3465    9.3187 C.2     1  UNL1        0.2230
     32 C          67.5035   96.7962    8.9502 C.3     1  UNL1        0.0946
     33 O          68.6255   94.4976    9.4062 O.2     1  UNL1       -0.2751
     34 H          65.2368   95.3027    9.5422 H       1  UNL1        0.1495
@<TRIPOS>BOND
     1    26    27    1
     2    27    14    1
     3    14    15   ar
     4    15    16   ar
     5    16    17    1
     6    16    18   ar
     7    18    19   ar
     8    19    20    1
     9    19    21   ar
    10    21     1    1
    11     1     2   ar
    12     2     3   ar
    13     3     4   ar
    14     4     5   ar
    15     5     6   ar
    16     5     7    1
    17     7    28    1
    18    28    29    1
    19    29    30    1
    20    30    31   am
    21    31    32    1
    22    31    33    2
    23     7     8   am
    24     8     9    2
    25     8    10    1
    26    10    11    1
    27    10    12    1
    28    10    13    1
    29    21    14   ar
    30     6     1   ar
    31    13     4    1
    32    17    22    1
    33    17    23    1
    34    20    24    1
    35    20    25    1
    36    30    34    1
@<TRIPOS>MOLECULE
*****
 34 36 0 0 0
SMALL
GASTEIGER

@<TRIPOS>ATOM
      1 C          63.5980   90.6023   12.2848 C.ar    1  UNL1        0.0053
      2 C          62.8810   91.4452   11.2723 C.ar    1  UNL1        0.0033
      3 C          62.0272   90.7948   10.2245 C.ar    1  UNL1        0.0382
      4 C          61.8903   89.3015   10.1892 C.ar    1  UNL1        0.1524
      5 C          62.6074   88.4585   11.2018 C.ar    1  UNL1        0.0881
      6 C          63.4612   89.1089   12.2496 C.ar    1  UNL1        0.0181
      7 N          62.4705   86.9652   11.1666 N.am    1  UNL1       -0.2514
      8 C          61.6167   86.3148   10.1188 C.2     1  UNL1        0.2657
      9 O          61.4798   84.8215   10.0835 O.2     1  UNL1       -0.2708
     10 C          60.8996   87.1578    9.1062 C.3     1  UNL1        0.2012
     11 C          60.0302   87.5266    7.9408 C.3     1  UNL1        0.0532
     12 C          60.4608   85.7926    8.6662 C.3     1  UNL1        0.0532
     13 O          61.0364   88.6511    9.1414 O.3     1  UNL1       -0.4727
     14 C          64.1828   90.9948   14.7856 C.ar    1  UNL1        0.0645
     15 N          65.0366   91.6452   15.8334 N.ar    1  UNL1       -0.2183
     16 C          66.1597   92.5533   15.4283 C.ar    1  UNL1        0.2145
     17 N          67.0135   93.2037   16.4762 N.pl3   1  UNL1       -0.3274
     18 N          66.4288   92.8111   13.9754 N.ar    1  UNL1       -0.1995
     19 C          65.5749   92.1608   12.9275 C.ar    1  UNL1        0.1293
     20 N          65.8441   92.4185   11.4746 N.pl3   1  UNL1       -0.3425
     21 C          64.4519   91.2526   13.3326 C.ar    1  UNL1        0.0449
     22 H          66.8369   93.0345   17.4298 H       1  UNL1        0.1452
     23 H          67.7506   93.7997   16.2103 H       1  UNL1        0.1452
     24 H          66.5812   93.0146   11.2087 H       1  UNL1        0.1437
     25 H          65.2837   91.9917   10.7868 H       1  UNL1        0.1437
     26 C          63.1211   89.3557   16.4992 C.3     1  UNL1        0.0067
     27 C          63.0597   90.0867   15.1907 C.3     1  UNL1        0.0460
     28 C          63.1875   86.1223   12.1791 C.3     1  UNL1        0.1196
     29 C          62.4672   85.0001   12.8661 C.3     1  UNL1        0.1113
     30 N          62.6943   83.5836   12.4281 N.am    1  UNL1       -0.3026
     31 C          62.6113   82.4673   13.4266 C.2     1  UNL1        0.2230
     32 C          62.8385   81.0508   12.9886 C.3     1  UNL1        0.0946
     33 O          62.3011   82.7676   14.8632 O.2     1  UNL1       -0.2751
     34 H          62.8979   83.3865   11.4852 H       1  UNL1        0.1495
@<TRIPOS>BOND
     1    26    27    1
     2    27    14    1
     3    14    15   ar
     4    15    16   ar
     5    16    17    1
     6    16    18   ar
     7    18    19   ar
     8    19    20    1
     9    19    21   ar
    10    21     1    1
    11     1     2   ar
    12     2     3   ar
    13     3     4   ar
    14     4     5   ar
    15     5     6   ar
    16     5     7    1
    17     7    28    1
    18    28    29    1
    19    29    30    1
    20    30    31   am
    21    31    32    1
    22    31    33    2
    23     7     8   am
    24     8     9    2
    25     8    10    1
    26    10    11    1
    27    10    12    1
    28    10    13    1
    29    21    14   ar
    30     6     1   ar
    31    13     4    1
    32    17    22    1
    33    17    23    1
    34    20    24    1
    35    20    25    1
    36    30    34    1
@<TRIPOS>MOLECULE
*****
 34 36 0 0 0
SMALL
GASTEIGER

@<TRIPOS>ATOM
      1 C          64.5510   90.7403   14.0016 C.ar    1  UNL1        0.0053
      2 C          64.1622   91.3953   15.2938 C.ar    1  UNL1        0.0033
      3 C          63.6693   90.5611   16.4388 C.ar    1  UNL1        0.0382
      4 C          63.5653   89.0719   16.2917 C.ar    1  UNL1        0.1524
      5 C          63.9541   88.4170   14.9995 C.ar    1  UNL1        0.0881
      6 C          64.4469   89.2512   13.8544 C.ar    1  UNL1        0.0181
      7 N          63.8501   86.9279   14.8523 N.am    1  UNL1       -0.2514
      8 C          63.3573   86.0937   15.9974 C.2     1  UNL1        0.2657
      9 O          63.2533   84.6045   15.8502 O.2     1  UNL1       -0.2708
     10 C          62.9685   86.7486   17.2897 C.3     1  UNL1        0.2012
     11 C          62.4853   86.9053   18.7010 C.3     1  UNL1        0.0532
     12 C          62.6966   85.3139   17.6327 C.3     1  UNL1        0.0532
     13 O          63.0725   88.2377   17.4368 O.3     1  UNL1       -0.4727
     14 C          66.4069   92.1978   12.9147 C.ar    1  UNL1        0.0645
     15 N          66.8998   93.0320   11.7696 N.ar    1  UNL1       -0.2183
     16 C          66.0295   93.2429   10.5662 C.ar    1  UNL1        0.2145
     17 N          66.5224   94.0770    9.4211 N.pl3   1  UNL1       -0.3274
     18 N          64.6664   92.6196   10.5079 N.ar    1  UNL1       -0.1995
     19 C          64.1735   91.7854   11.6531 C.ar    1  UNL1        0.1293
     20 N          62.8104   91.1621   11.5948 N.pl3   1  UNL1       -0.3425
     21 C          65.0438   91.5745   12.8564 C.ar    1  UNL1        0.0449
     22 H          67.4170   94.4861    9.4594 H       1  UNL1        0.1452
     23 H          65.9512   94.2155    8.6313 H       1  UNL1        0.1452
     24 H          62.2392   91.3006   10.8049 H       1  UNL1        0.1437
     25 H          62.4869   90.6146   12.3463 H       1  UNL1        0.1437
     26 C          67.4809   93.1015   15.1010 C.3     1  UNL1        0.0067
     27 C          67.2772   91.9869   14.1181 C.3     1  UNL1        0.0460
     28 C          64.2389   86.2729   13.5601 C.3     1  UNL1        0.1196
     29 C          63.2544   85.4061   12.8327 C.3     1  UNL1        0.1113
     30 N          62.1741   86.0326   12.0017 N.am    1  UNL1       -0.3026
     31 C          62.0730   85.7144   10.5393 C.2     1  UNL1        0.2230
     32 C          60.9928   86.3409    9.7083 C.3     1  UNL1        0.0946
     33 O          63.0523   84.7697    9.9079 O.2     1  UNL1       -0.2751
     34 H          61.5314   86.6526   12.4161 H       1  UNL1        0.1495
@<TRIPOS>BOND
     1    26    27    1
     2    27    14    1
     3    14    15   ar
     4    15    16   ar
     5    16    17    1
     6    16    18   ar
     7    18    19   ar
     8    19    20    1
     9    19    21   ar
    10    21     1    1
    11     1     2   ar
    12     2     3   ar
    13     3     4   ar
    14     4     5   ar
    15     5     6   ar
    16     5     7    1
    17     7    28    1
    18    28    29    1
    19    29    30    1
    20    30    31   am
    21    31    32    1
    22    31    33    2
    23     7     8   am
    24     8     9    2
    25     8    10    1
    26    10    11    1
    27    10    12    1
    28    10    13    1
    29    21    14   ar
    30     6     1   ar
    31    13     4    1
    32    17    22    1
    33    17    23    1
    34    20    24    1
    35    20    25    1
    36    30    34    1
@<TRIPOS>MOLECULE
*****
 34 36 0 0 0
SMALL
GASTEIGER

@<TRIPOS>ATOM
      1 C          64.5500   90.7356   13.9454 C.ar    1  UNL1        0.0053
      2 C          64.1642   91.3936   15.2369 C.ar    1  UNL1        0.0033
      3 C          63.6725   90.5623   16.3846 C.ar    1  UNL1        0.0382
      4 C          63.5668   89.0729   16.2407 C.ar    1  UNL1        0.1524
      5 C          63.9527   88.4149   14.9492 C.ar    1  UNL1        0.0881
      6 C          64.4443   89.2462   13.8016 C.ar    1  UNL1        0.0181
      7 N          63.8469   86.9256   14.8054 N.am    1  UNL1       -0.2514
      8 C          63.3553   86.0943   15.9531 C.2     1  UNL1        0.2657
      9 O          63.2496   84.6049   15.8092 O.2     1  UNL1       -0.2708
     10 C          62.9694   86.7523   17.2447 C.3     1  UNL1        0.2012
     11 C          62.4888   86.9124   18.6565 C.3     1  UNL1        0.0532
     12 C          62.6967   85.3186   17.5911 C.3     1  UNL1        0.0532
     13 O          63.0751   88.2416   17.3885 O.3     1  UNL1       -0.4727
     14 C          64.2113   91.6958   11.5552 C.ar    1  UNL1        0.0645
     15 N          64.7029   92.5271   10.4074 N.ar    1  UNL1       -0.2183
     16 C          66.0250   93.2294   10.5022 C.ar    1  UNL1        0.2145
     17 N          66.5166   94.0607    9.3545 N.pl3   1  UNL1       -0.3274
     18 N          66.8554   93.1005   11.7447 N.ar    1  UNL1       -0.1995
     19 C          66.3637   92.2692   12.8924 C.ar    1  UNL1        0.1293
     20 N          67.1941   92.1402   14.1349 N.pl3   1  UNL1       -0.3425
     21 C          65.0417   91.5669   12.7977 C.ar    1  UNL1        0.0449
     22 H          65.9715   94.1453    8.5390 H       1  UNL1        0.1452
     23 H          67.3842   94.5216    9.4167 H       1  UNL1        0.1452
     24 H          68.0618   92.6012   14.1971 H       1  UNL1        0.1437
     25 H          66.8715   91.5946   14.8882 H       1  UNL1        0.1437
     26 C          62.7195   89.8383   10.5187 C.3     1  UNL1        0.0067
     27 C          62.8892   90.9934   11.4604 C.3     1  UNL1        0.0460
     28 C          64.2328   86.2675   13.5139 C.3     1  UNL1        0.1196
     29 C          63.2318   85.4368   12.7670 C.3     1  UNL1        0.1113
     30 N          62.1355   86.1028   11.9893 N.am    1  UNL1       -0.3026
     31 C          61.9983   85.8477   10.5175 C.2     1  UNL1        0.2230
     32 C          60.9021   86.5136    9.7399 C.3     1  UNL1        0.0946
     33 O          62.9574   84.9265    9.8235 O.2     1  UNL1       -0.2751
     34 H          61.5061   86.7074   12.4448 H       1  UNL1        0.1495
@<TRIPOS>BOND
     1    26    27    1
     2    27    14    1
     3    14    15   ar
     4    15    16   ar
     5    16    17    1
     6    16    18   ar
     7    18    19   ar
     8    19    20    1
     9    19    21   ar
    10    21     1    1
    11     1     2   ar
    12     2     3   ar
    13     3     4   ar
    14     4     5   ar
    15     5     6   ar
    16     5     7    1
    17     7    28    1
    18    28    29    1
    19    29    30    1
    20    30    31   am
    21    31    32    1
    22    31    33    2
    23     7     8   am
    24     8     9    2
    25     8    10    1
    26    10    11    1
    27    10    12    1
    28    10    13    1
    29    21    14   ar
    30     6     1   ar
    31    13     4    1
    32    17    22    1
    33    17    23    1
    34    20    24    1
    35    20    25    1
    36    30    34    1
@<TRIPOS>MOLECULE
*****
 34 36 0 0 0
SMALL
GASTEIGER

@<TRIPOS>ATOM
      1 C          64.5889   91.1876   12.5515 C.ar    1  UNL1        0.0053
      2 C          63.9705   91.9372   11.4089 C.ar    1  UNL1        0.0033
      3 C          63.0090   91.2439   10.4899 C.ar    1  UNL1        0.0382
      4 C          62.6659   89.8008   10.7134 C.ar    1  UNL1        0.1524
      5 C          63.2844   89.0511   11.8559 C.ar    1  UNL1        0.0881
      6 C          64.2459   89.7445   12.7750 C.ar    1  UNL1        0.0181
      7 N          62.9414   87.6081   12.0794 N.am    1  UNL1       -0.2514
      8 C          61.9799   86.9147   11.1604 C.2     1  UNL1        0.2657
      9 O          61.6368   85.4717   11.3839 O.2     1  UNL1       -0.2708
     10 C          61.3613   87.6644   10.0178 C.3     1  UNL1        0.2012
     11 C          60.5225   87.9470    8.8068 C.3     1  UNL1        0.0532
     12 C          60.7270   86.3195    9.8207 C.3     1  UNL1        0.0532
     13 O          61.7043   89.1074    9.7943 O.3     1  UNL1       -0.4727
     14 C          65.3385   91.8302   14.9546 C.ar    1  UNL1        0.0645
     15 N          66.3000   92.5236   15.8738 N.ar    1  UNL1       -0.2183
     16 C          67.4736   93.2676   15.3088 C.ar    1  UNL1        0.2145
     17 N          68.4351   93.9609   16.2279 N.pl3   1  UNL1       -0.3274
     18 N          67.6856   93.3183   13.8247 N.ar    1  UNL1       -0.1995
     19 C          66.7240   92.6249   12.9056 C.ar    1  UNL1        0.1293
     20 N          66.9361   92.6756   11.4215 N.pl3   1  UNL1       -0.3425
     21 C          65.5505   91.8809   13.4706 C.ar    1  UNL1        0.0449
     22 H          68.2959   93.9277   17.2019 H       1  UNL1        0.1452
     23 H          69.2053   94.4493   15.8571 H       1  UNL1        0.1452
     24 H          67.7063   93.1640   11.0507 H       1  UNL1        0.1437
     25 H          66.3050   92.2206   10.8183 H       1  UNL1        0.1437
     26 C          63.6761   91.3959   16.9035 C.3     1  UNL1        0.0067
     27 C          64.1649   91.0862   15.5196 C.3     1  UNL1        0.0460
     28 C          63.5599   86.8584   13.2219 C.3     1  UNL1        0.1196
     29 C          64.1927   87.6086   14.3563 C.3     1  UNL1        0.1113
     30 N          63.5143   87.6589   15.6932 N.am    1  UNL1       -0.3026
     31 C          63.3862   86.4117   16.5166 C.2     1  UNL1        0.2230
     32 C          62.7079   86.4619   17.8535 C.3     1  UNL1        0.0946
     33 O          63.9365   85.1141   16.0031 O.2     1  UNL1       -0.2751
     34 H          63.1531   88.5105   16.0303 H       1  UNL1        0.1495
@<TRIPOS>BOND
     1    26    27    1
     2    27    14    1
     3    14    15   ar
     4    15    16   ar
     5    16    17    1
     6    16    18   ar
     7    18    19   ar
     8    19    20    1
     9    19    21   ar
    10    21     1    1
    11     1     2   ar
    12     2     3   ar
    13     3     4   ar
    14     4     5   ar
    15     5     6   ar
    16     5     7    1
    17     7    28    1
    18    28    29    1
    19    29    30    1
    20    30    31   am
    21    31    32    1
    22    31    33    2
    23     7     8   am
    24     8     9    2
    25     8    10    1
    26    10    11    1
    27    10    12    1
    28    10    13    1
    29    21    14   ar
    30     6     1   ar
    31    13     4    1
    32    17    22    1
    33    17    23    1
    34    20    24    1
    35    20    25    1
    36    30    34    1
@<TRIPOS>MOLECULE
*****
 34 36 0 0 0
SMALL
GASTEIGER

@<TRIPOS>ATOM
      1 C          62.8447   94.0394    1.0593 C.ar    1  UNL1        0.0053
      2 C          63.9836   94.9182    1.4843 C.ar    1  UNL1        0.0033
      3 C          64.8225   95.6106    0.4514 C.ar    1  UNL1        0.0382
      4 C          64.5225   95.4242   -1.0064 C.ar    1  UNL1        0.1524
      5 C          63.3837   94.5454   -1.4314 C.ar    1  UNL1        0.0881
      6 C          62.5448   93.8530   -0.3985 C.ar    1  UNL1        0.0181
      7 N          63.0837   94.3590   -2.8892 N.am    1  UNL1       -0.2514
      8 C          63.9226   95.0513   -3.9221 C.2     1  UNL1        0.2657
      9 O          63.6226   94.8649   -5.3799 O.2     1  UNL1       -0.2708
     10 C          65.0616   95.9302   -3.4971 C.3     1  UNL1        0.2012
     11 C          66.2382   96.8559   -3.5895 C.3     1  UNL1        0.0532
     12 C          65.1702   96.0652   -4.9870 C.3     1  UNL1        0.0532
     13 O          65.3615   96.1166   -2.0393 O.3     1  UNL1       -0.4727
     14 C          60.5958   93.7965    2.3375 C.ar    1  UNL1        0.0645
     15 N          59.7569   93.1042    3.3703 N.ar    1  UNL1       -0.2183
     16 C          60.3278   91.9623    4.1578 C.ar    1  UNL1        0.2145
     17 N          59.4888   91.2699    5.1906 N.pl3   1  UNL1       -0.3274
     18 N          61.7377   91.5128    3.9125 N.ar    1  UNL1       -0.1995
     19 C          62.5767   92.2052    2.8797 C.ar    1  UNL1        0.1293
     20 N          63.9865   91.7557    2.6344 N.pl3   1  UNL1       -0.3425
     21 C          62.0057   93.3470    2.0922 C.ar    1  UNL1        0.0449
     22 H          58.5634   91.5649    5.3516 H       1  UNL1        0.1452
     23 H          59.8635   90.5205    5.7075 H       1  UNL1        0.1452
     24 H          64.3613   91.0063    3.1513 H       1  UNL1        0.1437
     25 H          64.5372   92.2101    1.9565 H       1  UNL1        0.1437
     26 C          60.1383   96.3402    2.0717 C.3     1  UNL1        0.0067
     27 C          60.0249   94.9384    1.5499 C.3     1  UNL1        0.0460
     28 C          61.9448   93.4802   -3.3142 C.3     1  UNL1        0.1196
     29 C          60.5659   94.0540   -3.4526 C.3     1  UNL1        0.1113
     30 N          59.6606   94.1270   -2.2587 N.am    1  UNL1       -0.3026
     31 C          58.5048   93.1790   -2.1347 C.2     1  UNL1        0.2230
     32 C          57.5996   93.2520   -0.9409 C.3     1  UNL1        0.0946
     33 O          58.2542   92.1579   -3.2047 O.2     1  UNL1       -0.2751
     34 H          59.8251   94.7972   -1.5564 H       1  UNL1        0.1495
@<TRIPOS>BOND
     1    26    27    1
     2    27    14    1
     3    14    15   ar
     4    15    16   ar
     5    16    17    1
     6    16    18   ar
     7    18    19   ar
     8    19    20    1
     9    19    21   ar
    10    21     1    1
    11     1     2   ar
    12     2     3   ar
    13     3     4   ar
    14     4     5   ar
    15     5     6   ar
    16     5     7    1
    17     7    28    1
    18    28    29    1
    19    29    30    1
    20    30    31   am
    21    31    32    1
    22    31    33    2
    23     7     8   am
    24     8     9    2
    25     8    10    1
    26    10    11    1
    27    10    12    1
    28    10    13    1
    29    21    14   ar
    30     6     1   ar
    31    13     4    1
    32    17    22    1
    33    17    23    1
    34    20    24    1
    35    20    25    1
    36    30    34    1
