@<TRIPOS>MOLECULE
*****
 29 31 0 0 0
SMALL
GASTEIGER

@<TRIPOS>ATOM
      1 C          62.4707   89.5469   11.9708 C.ar    1  UNL1        0.0667
      2 C          62.8039   90.5994   10.9554 C.ar    1  UNL1        0.0304
      3 C          63.9095   91.5770   11.2237 C.ar    1  UNL1        0.0942
      4 CL         64.2428   92.6296   10.2082 Cl      1  UNL1       -0.0790
      5 C          64.6819   91.5020   12.5073 C.ar    1  UNL1        0.1663
      6 C          64.3487   90.4495   13.5227 C.ar    1  UNL1        0.0942
      7 CL         65.1211   90.3745   14.8064 Cl      1  UNL1       -0.0790
      8 C          63.2431   89.4719   13.2545 C.ar    1  UNL1        0.0304
      9 N          61.3651   88.5692   11.7026 N.pl3   1  UNL1       -0.2149
     10 H          60.5909   88.5231   12.3090 H       1  UNL1        0.1737
     11 O          61.4449   86.4685   11.4191 O.2     1  UNL1       -0.1499
     12 S          61.4391   87.6619   10.5104 S.O2    1  UNL1        0.0744
     13 O          61.4333   88.8553    9.6018 O.2     1  UNL1       -0.1499
     14 C          61.5131   86.7545    9.3182 C.ar    1  UNL1        0.1357
     15 C          62.7933   86.0422    8.9962 C.ar    1  UNL1        0.0219
     16 C          62.8673   85.1349    7.8040 C.ar    1  UNL1        0.0128
     17 C          61.6612   84.9398    6.9340 C.ar    1  UNL1        0.0586
     18 CL         61.7352   84.0325    5.7418 Cl      1  UNL1       -0.0822
     19 C          60.3810   85.6521    7.2560 C.ar    1  UNL1        0.0241
     20 C          60.3069   86.5595    8.4482 C.ar    1  UNL1        0.0773
     21 CL         59.0267   87.2717    8.7702 Cl      1  UNL1       -0.0808
     22 O          65.7875   92.4797   12.7756 O.3     1  UNL1       -0.4502
     23 C          66.5045   93.1334   11.6317 C.ar    1  UNL1        0.1653
     24 C          66.3837   94.6133   11.4183 C.ar    1  UNL1        0.1363
     25 N          67.1007   95.2670   10.2743 N.ar    1  UNL1       -0.2382
     26 C          67.9384   94.4410    9.3439 C.ar    1  UNL1        0.1104
     27 C          68.0592   92.9612    9.5573 C.ar    1  UNL1        0.0798
     28 CL         68.8970   92.1352    8.6268 Cl      1  UNL1       -0.0805
     29 C          67.3423   92.3074   10.7012 C.ar    1  UNL1        0.0521
@<TRIPOS>BOND
     1    11    12    2
     2    12    13    2
     3    12     9    1
     4     9     1    1
     5     1     2   ar
     6     2     3   ar
     7     3     4    1
     8     3     5   ar
     9     5    22    1
    10    22    23    1
    11    23    24   ar
    12    24    25   ar
    13    25    26   ar
    14    26    27   ar
    15    27    28    1
    16    27    29   ar
    17     5     6   ar
    18     6     7    1
    19     6     8   ar
    20    12    14    1
    21    14    15   ar
    22    15    16   ar
    23    16    17   ar
    24    17    18    1
    25    17    19   ar
    26    19    20   ar
    27    20    21    1
    28     8     1   ar
    29    20    14   ar
    30    29    23   ar
    31     9    10    1
@<TRIPOS>MOLECULE
*****
 29 31 0 0 0
SMALL
GASTEIGER

@<TRIPOS>ATOM
      1 C          63.8169   87.4193   14.1997 C.ar    1  UNL1        0.0667
      2 C          64.2675   88.5421   15.0863 C.ar    1  UNL1        0.0304
      3 C          64.2834   89.9487   14.5657 C.ar    1  UNL1        0.0942
      4 CL         64.7340   91.0716   15.4524 Cl      1  UNL1       -0.0790
      5 C          63.8485   90.2326   13.1585 C.ar    1  UNL1        0.1663
      6 C          63.3979   89.1097   12.2718 C.ar    1  UNL1        0.0942
      7 CL         62.9631   89.3936   10.8646 Cl      1  UNL1       -0.0790
      8 C          63.3821   87.7031   12.7924 C.ar    1  UNL1        0.0304
      9 N          63.8011   86.0126   14.7203 N.pl3   1  UNL1       -0.2149
     10 H          63.8842   85.8444   15.6868 H       1  UNL1        0.1737
     11 O          65.0888   84.4821   14.0137 O.2     1  UNL1       -0.1499
     12 S          63.6587   84.8621   13.7684 S.O2    1  UNL1        0.0744
     13 O          62.2285   85.2421   13.5231 O.2     1  UNL1       -0.1499
     14 C          63.5162   83.7116   12.8164 C.ar    1  UNL1        0.1357
     15 C          64.0677   83.8165   11.4254 C.ar    1  UNL1        0.0219
     16 C          63.9252   82.6661   10.4735 C.ar    1  UNL1        0.0128
     17 C          63.2314   81.4109   10.9125 C.ar    1  UNL1        0.0586
     18 CL         63.0890   80.2604    9.9606 Cl      1  UNL1       -0.0822
     19 C          62.6800   81.3060   12.3035 C.ar    1  UNL1        0.0241
     20 C          62.8224   82.4564   13.2555 C.ar    1  UNL1        0.0773
     21 CL         62.2710   82.3515   14.6465 Cl      1  UNL1       -0.0808
     22 O          63.8644   91.6393   12.6379 O.3     1  UNL1       -0.4502
     23 C          65.1258   92.2120   12.0628 C.ar    1  UNL1        0.1653
     24 C          66.4506   91.8822   12.6841 C.ar    1  UNL1        0.1363
     25 N          67.7121   92.4550   12.1089 N.ar    1  UNL1       -0.2382
     26 C          67.6487   93.3575   10.9126 C.ar    1  UNL1        0.1104
     27 C          66.3238   93.6874   10.2913 C.ar    1  UNL1        0.0798
     28 CL         66.2604   94.5900    9.0950 Cl      1  UNL1       -0.0805
     29 C          65.0624   93.1146   10.8664 C.ar    1  UNL1        0.0521
@<TRIPOS>BOND
     1    11    12    2
     2    12    13    2
     3    12     9    1
     4     9     1    1
     5     1     2   ar
     6     2     3   ar
     7     3     4    1
     8     3     5   ar
     9     5    22    1
    10    22    23    1
    11    23    24   ar
    12    24    25   ar
    13    25    26   ar
    14    26    27   ar
    15    27    28    1
    16    27    29   ar
    17     5     6   ar
    18     6     7    1
    19     6     8   ar
    20    12    14    1
    21    14    15   ar
    22    15    16   ar
    23    16    17   ar
    24    17    18    1
    25    17    19   ar
    26    19    20   ar
    27    20    21    1
    28     8     1   ar
    29    20    14   ar
    30    29    23   ar
    31     9    10    1
@<TRIPOS>MOLECULE
*****
 29 31 0 0 0
SMALL
GASTEIGER

@<TRIPOS>ATOM
      1 C          62.6211   87.8938   11.1639 C.ar    1  UNL1        0.0667
      2 C          62.5954   89.1387   10.3275 C.ar    1  UNL1        0.0304
      3 C          63.0722   90.4391   10.9033 C.ar    1  UNL1        0.0942
      4 CL         63.0465   91.6840   10.0668 Cl      1  UNL1       -0.0790
      5 C          63.5747   90.4946   12.3155 C.ar    1  UNL1        0.1663
      6 C          63.6004   89.2498   13.1519 C.ar    1  UNL1        0.0942
      7 CL         64.1029   89.3054   14.5642 Cl      1  UNL1       -0.0790
      8 C          63.1236   87.9494   12.5762 C.ar    1  UNL1        0.0304
      9 N          62.1442   86.5934   10.5882 N.pl3   1  UNL1       -0.2149
     10 H          61.6163   86.5870    9.7572 H       1  UNL1        0.1737
     11 O          63.3858   84.9305   10.1490 O.2     1  UNL1       -0.1499
     12 S          62.4717   85.3026   11.2785 S.O2    1  UNL1        0.0744
     13 O          61.5576   85.6747   12.4080 O.2     1  UNL1       -0.1499
     14 C          62.7992   84.0117   11.9689 C.ar    1  UNL1        0.1357
     15 C          62.3731   82.7077   11.3623 C.ar    1  UNL1        0.0219
     16 C          62.7006   81.4169   12.0526 C.ar    1  UNL1        0.0128
     17 C          63.4541   81.4301   13.3495 C.ar    1  UNL1        0.0586
     18 CL         63.7816   80.1393   14.0399 Cl      1  UNL1       -0.0822
     19 C          63.8801   82.7342   13.9561 C.ar    1  UNL1        0.0241
     20 C          63.5527   84.0250   13.2658 C.ar    1  UNL1        0.0773
     21 CL         63.9787   85.3290   13.8724 Cl      1  UNL1       -0.0808
     22 O          64.0516   91.7951   12.8912 O.3     1  UNL1       -0.4502
     23 C          65.5008   91.9778   13.2323 C.ar    1  UNL1        0.1653
     24 C          66.5254   92.0487   12.1390 C.ar    1  UNL1        0.1363
     25 N          67.9747   92.2314   12.4801 N.ar    1  UNL1       -0.2382
     26 C          68.3993   92.3433   13.9144 C.ar    1  UNL1        0.1104
     27 C          67.3747   92.2724   15.0076 C.ar    1  UNL1        0.0798
     28 CL         67.7993   92.3843   16.4419 Cl      1  UNL1       -0.0805
     29 C          65.9255   92.0897   14.6666 C.ar    1  UNL1        0.0521
@<TRIPOS>BOND
     1    11    12    2
     2    12    13    2
     3    12     9    1
     4     9     1    1
     5     1     2   ar
     6     2     3   ar
     7     3     4    1
     8     3     5   ar
     9     5    22    1
    10    22    23    1
    11    23    24   ar
    12    24    25   ar
    13    25    26   ar
    14    26    27   ar
    15    27    28    1
    16    27    29   ar
    17     5     6   ar
    18     6     7    1
    19     6     8   ar
    20    12    14    1
    21    14    15   ar
    22    15    16   ar
    23    16    17   ar
    24    17    18    1
    25    17    19   ar
    26    19    20   ar
    27    20    21    1
    28     8     1   ar
    29    20    14   ar
    30    29    23   ar
    31     9    10    1
@<TRIPOS>MOLECULE
*****
 29 31 0 0 0
SMALL
GASTEIGER

@<TRIPOS>ATOM
      1 C          63.7543   86.7650   14.9127 C.ar    1  UNL1        0.0667
      2 C          63.7049   87.7841   16.0122 C.ar    1  UNL1        0.0304
      3 C          63.5862   89.2417   15.6789 C.ar    1  UNL1        0.0942
      4 CL         63.5367   90.2609   16.7785 Cl      1  UNL1       -0.0790
      5 C          63.5170   89.6803   14.2462 C.ar    1  UNL1        0.1663
      6 C          63.5664   88.6612   13.1466 C.ar    1  UNL1        0.0942
      7 CL         63.4972   89.0998   11.7139 Cl      1  UNL1       -0.0790
      8 C          63.6851   87.2036   13.4799 C.ar    1  UNL1        0.0304
      9 N          63.8730   85.3073   15.2459 N.pl3   1  UNL1       -0.2149
     10 H          64.0618   85.0275   16.1708 H       1  UNL1        0.1737
     11 O          62.2544   84.6415   14.0473 O.2     1  UNL1       -0.1499
     12 S          63.7039   84.2758   14.1701 S.O2    1  UNL1        0.0744
     13 O          65.1534   83.9101   14.2929 O.2     1  UNL1       -0.1499
     14 C          63.5349   83.2443   13.0942 C.ar    1  UNL1        0.1357
     15 C          64.1738   83.4484   11.7525 C.ar    1  UNL1        0.0219
     16 C          64.0048   82.4170   10.6766 C.ar    1  UNL1        0.0128
     17 C          63.1969   81.1814   10.9425 C.ar    1  UNL1        0.0586
     18 CL         63.0279   80.1499    9.8666 Cl      1  UNL1       -0.0822
     19 C          62.5581   80.9773   12.2842 C.ar    1  UNL1        0.0241
     20 C          62.7271   82.0087   13.3601 C.ar    1  UNL1        0.0773
     21 CL         62.0882   81.8046   14.7018 Cl      1  UNL1       -0.0808
     22 O          63.3983   91.1381   13.9129 O.3     1  UNL1       -0.4502
     23 C          64.6172   91.9195   13.5212 C.ar    1  UNL1        0.1653
     24 C          64.7889   92.3812   12.1044 C.ar    1  UNL1        0.1363
     25 N          66.0079   93.1627   11.7127 N.ar    1  UNL1       -0.2382
     26 C          67.0552   93.4825   12.7378 C.ar    1  UNL1        0.1104
     27 C          66.8835   93.0208   14.1546 C.ar    1  UNL1        0.0798
     28 CL         67.9308   93.3406   15.1797 Cl      1  UNL1       -0.0805
     29 C          65.6646   92.2394   14.5463 C.ar    1  UNL1        0.0521
@<TRIPOS>BOND
     1    11    12    2
     2    12    13    2
     3    12     9    1
     4     9     1    1
     5     1     2   ar
     6     2     3   ar
     7     3     4    1
     8     3     5   ar
     9     5    22    1
    10    22    23    1
    11    23    24   ar
    12    24    25   ar
    13    25    26   ar
    14    26    27   ar
    15    27    28    1
    16    27    29   ar
    17     5     6   ar
    18     6     7    1
    19     6     8   ar
    20    12    14    1
    21    14    15   ar
    22    15    16   ar
    23    16    17   ar
    24    17    18    1
    25    17    19   ar
    26    19    20   ar
    27    20    21    1
    28     8     1   ar
    29    20    14   ar
    30    29    23   ar
    31     9    10    1
@<TRIPOS>MOLECULE
*****
 29 31 0 0 0
SMALL
GASTEIGER

@<TRIPOS>ATOM
      1 C          62.4962   89.1405   12.0765 C.ar    1  UNL1        0.0667
      2 C          62.8040   90.0302   10.9088 C.ar    1  UNL1        0.0304
      3 C          63.6593   91.2477   11.0986 C.ar    1  UNL1        0.0942
      4 CL         63.9672   92.1375    9.9308 Cl      1  UNL1       -0.0790
      5 C          64.2068   91.5755   12.4561 C.ar    1  UNL1        0.1663
      6 C          63.8990   90.6858   13.6238 C.ar    1  UNL1        0.0942
      7 CL         64.4465   91.0136   14.9813 Cl      1  UNL1       -0.0790
      8 C          63.0436   89.4683   13.4340 C.ar    1  UNL1        0.0304
      9 N          61.6408   87.9229   11.8868 N.pl3   1  UNL1       -0.2149
     10 H          61.0493   87.6189   12.6127 H       1  UNL1        0.1737
     11 O          61.9666   85.8995   11.3397 O.2     1  UNL1       -0.1499
     12 S          61.6866   87.1687   10.5910 S.O2    1  UNL1        0.0744
     13 O          61.4066   88.4379    9.8423 O.2     1  UNL1       -0.1499
     14 C          61.7323   86.4145    9.2952 C.ar    1  UNL1        0.1357
     15 C          62.9944   85.7210    8.8752 C.ar    1  UNL1        0.0219
     16 C          63.0402   84.9668    7.5795 C.ar    1  UNL1        0.0128
     17 C          61.8240   84.9060    6.7037 C.ar    1  UNL1        0.0586
     18 CL         61.8697   84.1518    5.4079 Cl      1  UNL1       -0.0822
     19 C          60.5619   85.5995    7.1237 C.ar    1  UNL1        0.0241
     20 C          60.5161   86.3537    8.4194 C.ar    1  UNL1        0.0773
     21 CL         59.2540   87.0471    8.8394 Cl      1  UNL1       -0.0808
     22 O          65.0622   92.7931   12.6458 O.3     1  UNL1       -0.4502
     23 C          66.4561   92.6543   13.1822 C.ar    1  UNL1        0.1653
     24 C          67.4744   91.8534   12.4261 C.ar    1  UNL1        0.1363
     25 N          68.8683   91.7146   12.9626 N.ar    1  UNL1       -0.2382
     26 C          69.2439   92.3766   14.2551 C.ar    1  UNL1        0.1104
     27 C          68.2256   93.1775   15.0112 C.ar    1  UNL1        0.0798
     28 CL         68.6012   93.8395   16.3037 Cl      1  UNL1       -0.0805
     29 C          66.8317   93.3163   14.4748 C.ar    1  UNL1        0.0521
@<TRIPOS>BOND
     1    11    12    2
     2    12    13    2
     3    12     9    1
     4     9     1    1
     5     1     2   ar
     6     2     3   ar
     7     3     4    1
     8     3     5   ar
     9     5    22    1
    10    22    23    1
    11    23    24   ar
    12    24    25   ar
    13    25    26   ar
    14    26    27   ar
    15    27    28    1
    16    27    29   ar
    17     5     6   ar
    18     6     7    1
    19     6     8   ar
    20    12    14    1
    21    14    15   ar
    22    15    16   ar
    23    16    17   ar
    24    17    18    1
    25    17    19   ar
    26    19    20   ar
    27    20    21    1
    28     8     1   ar
    29    20    14   ar
    30    29    23   ar
    31     9    10    1
@<TRIPOS>MOLECULE
*****
 29 31 0 0 0
SMALL
GASTEIGER

@<TRIPOS>ATOM
      1 C          62.9643   89.8387   11.2525 C.ar    1  UNL1        0.0667
      2 C          63.4427   88.8811   12.3032 C.ar    1  UNL1        0.0304
      3 C          62.9784   87.4549   12.2854 C.ar    1  UNL1        0.0942
      4 CL         63.4569   86.4972   13.3361 Cl      1  UNL1       -0.0790
      5 C          62.0357   86.9863   11.2169 C.ar    1  UNL1        0.1663
      6 C          61.5573   87.9439   10.1662 C.ar    1  UNL1        0.0942
      7 CL         60.6145   87.4753    9.0977 Cl      1  UNL1       -0.0790
      8 C          62.0216   89.3701   10.1840 C.ar    1  UNL1        0.0304
      9 N          63.4286   91.2650   11.2702 N.pl3   1  UNL1       -0.2149
     10 H          63.0314   91.9197   10.6515 H       1  UNL1        0.1737
     11 O          65.4784   91.7833   11.0989 O.2     1  UNL1       -0.1499
     12 S          64.4980   91.6937   12.2306 S.O2    1  UNL1        0.0744
     13 O          63.5177   91.6040   13.3623 O.2     1  UNL1       -0.1499
     14 C          65.5675   92.1224   13.1911 C.ar    1  UNL1        0.1357
     15 C          65.9877   91.2073   14.3030 C.ar    1  UNL1        0.0219
     16 C          67.0571   91.6360   15.2634 C.ar    1  UNL1        0.0128
     17 C          67.7064   92.9797   15.1121 C.ar    1  UNL1        0.0586
     18 CL         68.7758   93.4084   16.0726 Cl      1  UNL1       -0.0822
     19 C          67.2862   93.8947   14.0002 C.ar    1  UNL1        0.0241
     20 C          66.2168   93.4660   13.0398 C.ar    1  UNL1        0.0773
     21 CL         65.7966   94.3811   11.9279 Cl      1  UNL1       -0.0808
     22 O          61.5714   85.5600   11.1991 O.3     1  UNL1       -0.4502
     23 C          62.5738   84.4446   11.2287 C.ar    1  UNL1        0.1653
     24 C          63.5199   84.2558   10.0801 C.ar    1  UNL1        0.1363
     25 N          64.5223   83.1402   10.1097 N.ar    1  UNL1       -0.2382
     26 C          64.5786   82.2136   11.2879 C.ar    1  UNL1        0.1104
     27 C          63.6325   82.4024   12.4365 C.ar    1  UNL1        0.0798
     28 CL         63.6888   81.4757   13.6146 Cl      1  UNL1       -0.0805
     29 C          62.6301   83.5178   12.4069 C.ar    1  UNL1        0.0521
@<TRIPOS>BOND
     1    11    12    2
     2    12    13    2
     3    12     9    1
     4     9     1    1
     5     1     2   ar
     6     2     3   ar
     7     3     4    1
     8     3     5   ar
     9     5    22    1
    10    22    23    1
    11    23    24   ar
    12    24    25   ar
    13    25    26   ar
    14    26    27   ar
    15    27    28    1
    16    27    29   ar
    17     5     6   ar
    18     6     7    1
    19     6     8   ar
    20    12    14    1
    21    14    15   ar
    22    15    16   ar
    23    16    17   ar
    24    17    18    1
    25    17    19   ar
    26    19    20   ar
    27    20    21    1
    28     8     1   ar
    29    20    14   ar
    30    29    23   ar
    31     9    10    1
@<TRIPOS>MOLECULE
*****
 29 31 0 0 0
SMALL
GASTEIGER

@<TRIPOS>ATOM
      1 C          62.6234   88.7904   11.5978 C.ar    1  UNL1        0.0667
      2 C          63.1393   89.8919   10.7200 C.ar    1  UNL1        0.0304
      3 C          63.7599   91.1117   11.3339 C.ar    1  UNL1        0.0942
      4 CL         64.2758   92.2132   10.4560 Cl      1  UNL1       -0.0790
      5 C          63.8647   91.2300   12.8255 C.ar    1  UNL1        0.1663
      6 C          63.3488   90.1285   13.7033 C.ar    1  UNL1        0.0942
      7 CL         63.4536   90.2469   15.1950 Cl      1  UNL1       -0.0790
      8 C          62.7282   88.9087   13.0895 C.ar    1  UNL1        0.0304
      9 N          62.0027   87.5705   10.9840 N.pl3   1  UNL1       -0.2149
     10 H          61.3724   87.6635   10.2335 H       1  UNL1        0.1737
     11 O          61.2979   85.6023   10.6244 O.2     1  UNL1       -0.1499
     12 S          62.3424   86.2089   11.5137 S.O2    1  UNL1        0.0744
     13 O          63.3870   86.8155   12.4031 O.2     1  UNL1       -0.1499
     14 C          62.6822   84.8472   12.0435 C.ar    1  UNL1        0.1357
     15 C          62.3982   84.5078   13.4767 C.ar    1  UNL1        0.0219
     16 C          62.7379   83.1463   14.0065 C.ar    1  UNL1        0.0128
     17 C          63.3616   82.1241   13.1030 C.ar    1  UNL1        0.0586
     18 CL         63.7013   80.7625   13.6328 Cl      1  UNL1       -0.0822
     19 C          63.6455   82.4636   11.6698 C.ar    1  UNL1        0.0241
     20 C          63.3058   83.8251   11.1400 C.ar    1  UNL1        0.0773
     21 CL         63.5897   84.1646    9.7068 Cl      1  UNL1       -0.0808
     22 O          64.4853   92.4499   13.4393 O.3     1  UNL1       -0.4502
     23 C          65.8322   92.3579   14.0932 C.ar    1  UNL1        0.1653
     24 C          65.9693   92.6060   15.5662 C.ar    1  UNL1        0.1363
     25 N          67.3162   92.5139   16.2200 N.ar    1  UNL1       -0.2382
     26 C          68.5259   92.1739   15.4008 C.ar    1  UNL1        0.1104
     27 C          68.3887   91.9258   13.9279 C.ar    1  UNL1        0.0798
     28 CL         69.5984   91.5857   13.1087 Cl      1  UNL1       -0.0805
     29 C          67.0419   92.0178   13.2740 C.ar    1  UNL1        0.0521
@<TRIPOS>BOND
     1    11    12    2
     2    12    13    2
     3    12     9    1
     4     9     1    1
     5     1     2   ar
     6     2     3   ar
     7     3     4    1
     8     3     5   ar
     9     5    22    1
    10    22    23    1
    11    23    24   ar
    12    24    25   ar
    13    25    26   ar
    14    26    27   ar
    15    27    28    1
    16    27    29   ar
    17     5     6   ar
    18     6     7    1
    19     6     8   ar
    20    12    14    1
    21    14    15   ar
    22    15    16   ar
    23    16    17   ar
    24    17    18    1
    25    17    19   ar
    26    19    20   ar
    27    20    21    1
    28     8     1   ar
    29    20    14   ar
    30    29    23   ar
    31     9    10    1
@<TRIPOS>MOLECULE
*****
 29 31 0 0 0
SMALL
GASTEIGER

@<TRIPOS>ATOM
      1 C          62.6170   88.5594   11.2749 C.ar    1  UNL1        0.0667
      2 C          62.6654   89.7369   10.3470 C.ar    1  UNL1        0.0304
      3 C          63.3790   90.9895   10.7616 C.ar    1  UNL1        0.0942
      4 CL         63.4274   92.1671    9.8337 Cl      1  UNL1       -0.0790
      5 C          64.0440   91.0646   12.1040 C.ar    1  UNL1        0.1663
      6 C          63.9956   89.8870   13.0318 C.ar    1  UNL1        0.0942
      7 CL         64.6607   89.9621   14.3743 Cl      1  UNL1       -0.0790
      8 C          63.2821   88.6344   12.6173 C.ar    1  UNL1        0.0304
      9 N          61.9035   87.3067   10.8604 N.pl3   1  UNL1       -0.2149
     10 H          61.1650   87.3528   10.2110 H       1  UNL1        0.1737
     11 O          63.2381   85.7660   10.2733 O.2     1  UNL1       -0.1499
     12 S          62.3151   85.9839   11.4354 S.O2    1  UNL1        0.0744
     13 O          61.3920   86.2018   12.5975 O.2     1  UNL1       -0.1499
     14 C          62.7267   84.6610   12.0105 C.ar    1  UNL1        0.1357
     15 C          62.3027   83.3875   11.3407 C.ar    1  UNL1        0.0219
     16 C          62.7142   82.0647   11.9157 C.ar    1  UNL1        0.0128
     17 C          63.5498   82.0153   13.1605 C.ar    1  UNL1        0.0586
     18 CL         63.9614   80.6924   13.7355 Cl      1  UNL1       -0.0822
     19 C          63.9738   83.2888   13.8302 C.ar    1  UNL1        0.0241
     20 C          63.5622   84.6116   13.2552 C.ar    1  UNL1        0.0773
     21 CL         63.9862   85.8851   13.9249 Cl      1  UNL1       -0.0808
     22 O          64.7576   92.3172   12.5185 O.3     1  UNL1       -0.4502
     23 C          65.7894   92.9262   11.6160 C.ar    1  UNL1        0.1653
     24 C          66.9075   92.0830   11.0788 C.ar    1  UNL1        0.1363
     25 N          67.9394   92.6920   10.1763 N.ar    1  UNL1       -0.2382
     26 C          67.8530   94.1443    9.8111 C.ar    1  UNL1        0.1104
     27 C          66.7348   94.9875   10.3483 C.ar    1  UNL1        0.0798
     28 CL         66.6485   96.4398    9.9831 Cl      1  UNL1       -0.0805
     29 C          65.7030   94.3786   11.2507 C.ar    1  UNL1        0.0521
@<TRIPOS>BOND
     1    11    12    2
     2    12    13    2
     3    12     9    1
     4     9     1    1
     5     1     2   ar
     6     2     3   ar
     7     3     4    1
     8     3     5   ar
     9     5    22    1
    10    22    23    1
    11    23    24   ar
    12    24    25   ar
    13    25    26   ar
    14    26    27   ar
    15    27    28    1
    16    27    29   ar
    17     5     6   ar
    18     6     7    1
    19     6     8   ar
    20    12    14    1
    21    14    15   ar
    22    15    16   ar
    23    16    17   ar
    24    17    18    1
    25    17    19   ar
    26    19    20   ar
    27    20    21    1
    28     8     1   ar
    29    20    14   ar
    30    29    23   ar
    31     9    10    1
@<TRIPOS>MOLECULE
*****
 29 31 0 0 0
SMALL
GASTEIGER

@<TRIPOS>ATOM
      1 C          62.4030   88.8354   11.1828 C.ar    1  UNL1        0.0667
      2 C          62.8944   87.8522   12.2035 C.ar    1  UNL1        0.0304
      3 C          62.8710   86.3831   11.9017 C.ar    1  UNL1        0.0942
      4 CL         63.3624   85.3998   12.9224 Cl      1  UNL1       -0.0790
      5 C          62.3563   85.8972   10.5792 C.ar    1  UNL1        0.1663
      6 C          61.8649   86.8803    9.5585 C.ar    1  UNL1        0.0942
      7 CL         61.3502   86.3944    8.2361 Cl      1  UNL1       -0.0790
      8 C          61.8883   88.3494    9.8603 C.ar    1  UNL1        0.0304
      9 N          62.4264   90.3046   11.4845 N.pl3   1  UNL1       -0.2149
     10 H          61.6773   90.8772   11.2014 H       1  UNL1        0.1737
     11 O          62.8729   90.7031   13.5196 O.2     1  UNL1       -0.1499
     12 S          63.5910   90.9012   12.2177 S.O2    1  UNL1        0.0744
     13 O          64.3091   91.0993   10.9157 O.2     1  UNL1       -0.1499
     14 C          64.7558   91.4979   12.9508 C.ar    1  UNL1        0.1357
     15 C          65.3517   92.7931   12.4845 C.ar    1  UNL1        0.0219
     16 C          66.5163   93.3898   13.2175 C.ar    1  UNL1        0.0128
     17 C          67.0851   92.6913   14.4169 C.ar    1  UNL1        0.0586
     18 CL         68.2498   93.2881   15.1501 Cl      1  UNL1       -0.0822
     19 C          66.4892   91.3962   14.8833 C.ar    1  UNL1        0.0241
     20 C          65.3245   90.7995   14.1502 C.ar    1  UNL1        0.0773
     21 CL         64.7286   89.5044   14.6166 Cl      1  UNL1       -0.0808
     22 O          62.3330   84.4279   10.2775 O.3     1  UNL1       -0.4502
     23 C          62.9377   83.4539   11.2447 C.ar    1  UNL1        0.1653
     24 C          64.4031   83.1412   11.1767 C.ar    1  UNL1        0.1363
     25 N          65.0078   82.1671   12.1440 N.ar    1  UNL1       -0.2382
     26 C          64.1470   81.5059   13.1793 C.ar    1  UNL1        0.1104
     27 C          62.6816   81.8186   13.2472 C.ar    1  UNL1        0.0798
     28 CL         61.8208   81.1573   14.2824 Cl      1  UNL1       -0.0805
     29 C          62.0769   82.7926   12.2800 C.ar    1  UNL1        0.0521
@<TRIPOS>BOND
     1    11    12    2
     2    12    13    2
     3    12     9    1
     4     9     1    1
     5     1     2   ar
     6     2     3   ar
     7     3     4    1
     8     3     5   ar
     9     5    22    1
    10    22    23    1
    11    23    24   ar
    12    24    25   ar
    13    25    26   ar
    14    26    27   ar
    15    27    28    1
    16    27    29   ar
    17     5     6   ar
    18     6     7    1
    19     6     8   ar
    20    12    14    1
    21    14    15   ar
    22    15    16   ar
    23    16    17   ar
    24    17    18    1
    25    17    19   ar
    26    19    20   ar
    27    20    21    1
    28     8     1   ar
    29    20    14   ar
    30    29    23   ar
    31     9    10    1
