@<TRIPOS>MOLECULE
*****
 21 23 0 0 0
SMALL
GASTEIGER

@<TRIPOS>ATOM
      1 O          65.5641   93.1318   10.4765 O.2     1  UNL1       -0.2701
      2 C          65.2335   92.3535   11.7154 C.2     1  UNL1        0.2470
      3 N          66.0464   92.5458   12.9612 N.am    1  UNL1       -0.3004
      4 C          65.7158   91.7675   14.2001 C.3     1  UNL1        0.0960
      5 C          64.5724   90.7968   14.1932 C.3     1  UNL1        0.0673
      6 C          63.7595   90.6044   12.9474 C.ar    1  UNL1        0.0681
      7 N          62.6159   89.6336   12.9404 N.ar    1  UNL1       -0.2158
      8 C          61.8030   89.4412   11.6946 C.ar    1  UNL1        0.2248
      9 C          62.1336   90.2195   10.4557 C.ar    1  UNL1        0.0578
     10 C          63.2771   91.1903   10.4626 C.ar    1  UNL1        0.0105
     11 C          64.0901   91.3827   11.7085 C.ar    1  UNL1        0.0672
     12 H          66.7969   93.1830   12.9658 H       1  UNL1        0.1498
     13 O          60.6595   88.4704   11.6876 O.3     1  UNL1       -0.4552
     14 C          60.4597   87.5553   10.5160 C.3     1  UNL1        0.2338
     15 C          61.4552   86.4692   10.2345 C.ar    1  UNL1        0.0234
     16 C          62.0342   86.3207    8.8587 C.ar    1  UNL1       -0.0005
     17 C          63.0297   85.2346    8.5771 C.ar    1  UNL1        0.0021
     18 C          63.4462   84.2969    9.6713 C.ar    1  UNL1        0.0296
     19 C          62.8673   84.4453   11.0471 C.ar    1  UNL1        0.1399
     20 F          63.2838   83.5077   12.1413 F       1  UNL1       -0.2042
     21 C          61.8717   85.5315   11.3287 C.ar    1  UNL1        0.0290
@<TRIPOS>BOND
     1     1     2    2
     2     2     3   am
     3     3     4    1
     4     4     5    1
     5     5     6    1
     6     6     7   ar
     7     7     8   ar
     8     8    13    1
     9    13    14    1
    10    14    15    1
    11    15    16   ar
    12    16    17   ar
    13    17    18   ar
    14    18    19   ar
    15    19    20    1
    16    19    21   ar
    17     8     9   ar
    18     9    10   ar
    19    10    11   ar
    20    11     2    1
    21    11     6   ar
    22    21    15   ar
    23     3    12    1
@<TRIPOS>MOLECULE
*****
 21 23 0 0 0
SMALL
GASTEIGER

@<TRIPOS>ATOM
      1 O          66.1218   93.7151   10.1897 O.2     1  UNL1       -0.2701
      2 C          65.8908   92.9964   11.4859 C.2     1  UNL1        0.2470
      3 N          66.7655   93.2850   12.6697 N.am    1  UNL1       -0.3004
      4 C          66.5344   92.5663   13.9659 C.3     1  UNL1        0.0960
      5 C          65.4287   91.5590   14.0782 C.3     1  UNL1        0.0673
      6 C          64.5540   91.2704   12.8944 C.ar    1  UNL1        0.0681
      7 N          63.4482   90.2630   13.0066 N.ar    1  UNL1       -0.2158
      8 C          62.5736   89.9744   11.8228 C.ar    1  UNL1        0.2248
      9 C          62.8046   90.6931   10.5266 C.ar    1  UNL1        0.0578
     10 C          63.9103   91.7004   10.4143 C.ar    1  UNL1        0.0105
     11 C          64.7851   91.9891   11.5982 C.ar    1  UNL1        0.0672
     12 H          67.4912   93.9462   12.5960 H       1  UNL1        0.1498
     13 O          61.4678   88.9671   11.9351 O.3     1  UNL1       -0.4552
     14 C          60.4727   88.8186   10.8226 C.3     1  UNL1        0.2338
     15 C          60.6775   87.7718    9.7679 C.ar    1  UNL1        0.0234
     16 C          59.5532   87.4082    8.8438 C.ar    1  UNL1       -0.0005
     17 C          59.7580   86.3614    7.7892 C.ar    1  UNL1        0.0021
     18 C          61.0870   85.6783    7.6586 C.ar    1  UNL1        0.0296
     19 C          62.2112   86.0419    8.5826 C.ar    1  UNL1        0.1399
     20 F          63.5402   85.3587    8.4520 F       1  UNL1       -0.2042
     21 C          62.0065   87.0887    9.6373 C.ar    1  UNL1        0.0290
@<TRIPOS>BOND
     1     1     2    2
     2     2     3   am
     3     3     4    1
     4     4     5    1
     5     5     6    1
     6     6     7   ar
     7     7     8   ar
     8     8    13    1
     9    13    14    1
    10    14    15    1
    11    15    16   ar
    12    16    17   ar
    13    17    18   ar
    14    18    19   ar
    15    19    20    1
    16    19    21   ar
    17     8     9   ar
    18     9    10   ar
    19    10    11   ar
    20    11     2    1
    21    11     6   ar
    22    21    15   ar
    23     3    12    1
@<TRIPOS>MOLECULE
*****
 21 23 0 0 0
SMALL
GASTEIGER

@<TRIPOS>ATOM
      1 O          62.7495   84.8931    7.3816 O.2     1  UNL1       -0.2701
      2 C          62.1377   85.5995    8.5550 C.2     1  UNL1        0.2470
      3 N          61.1624   86.7172    8.3325 N.am    1  UNL1       -0.3004
      4 C          60.5507   87.4235    9.5058 C.3     1  UNL1        0.0960
      5 C          60.9142   87.0122   10.9017 C.3     1  UNL1        0.0673
      6 C          61.8894   85.8945   11.1243 C.ar    1  UNL1        0.0681
      7 N          62.2530   85.4831   12.5202 N.ar    1  UNL1       -0.2158
      8 C          63.2282   84.3654   12.7428 C.ar    1  UNL1        0.2248
      9 C          63.8400   83.6590   11.5694 C.ar    1  UNL1        0.0578
     10 C          63.4765   84.0704   10.1735 C.ar    1  UNL1        0.0105
     11 C          62.5012   85.1881    9.9509 C.ar    1  UNL1        0.0672
     12 H          60.9239   86.9872    7.4163 H       1  UNL1        0.1498
     13 O          63.5918   83.9540   14.1388 O.3     1  UNL1       -0.4552
     14 C          64.5380   84.7929   14.9455 C.3     1  UNL1        0.2338
     15 C          64.0939   86.1233   15.4772 C.ar    1  UNL1        0.0234
     16 C          63.3002   86.1962   16.7480 C.ar    1  UNL1       -0.0005
     17 C          62.8561   87.5266   17.2796 C.ar    1  UNL1        0.0021
     18 C          63.2056   88.7842   16.5406 C.ar    1  UNL1        0.0296
     19 C          63.9993   88.7114   15.2698 C.ar    1  UNL1        0.1399
     20 F          64.3488   89.9691   14.5308 F       1  UNL1       -0.2042
     21 C          64.4434   87.3810   14.7381 C.ar    1  UNL1        0.0290
@<TRIPOS>BOND
     1     1     2    2
     2     2     3   am
     3     3     4    1
     4     4     5    1
     5     5     6    1
     6     6     7   ar
     7     7     8   ar
     8     8    13    1
     9    13    14    1
    10    14    15    1
    11    15    16   ar
    12    16    17   ar
    13    17    18   ar
    14    18    19   ar
    15    19    20    1
    16    19    21   ar
    17     8     9   ar
    18     9    10   ar
    19    10    11   ar
    20    11     2    1
    21    11     6   ar
    22    21    15   ar
    23     3    12    1
@<TRIPOS>MOLECULE
*****
 21 23 0 0 0
SMALL
GASTEIGER

@<TRIPOS>ATOM
      1 O          67.1608   92.4922   14.8164 O.2     1  UNL1       -0.2701
      2 C          66.4364   92.6199   13.5091 C.2     1  UNL1        0.2470
      3 N          66.7930   93.7243   12.5589 N.am    1  UNL1       -0.3004
      4 C          66.0686   93.8521   11.2516 C.3     1  UNL1        0.0960
      5 C          64.9876   92.8753   10.8946 C.3     1  UNL1        0.0673
      6 C          64.6311   91.7709   11.8449 C.ar    1  UNL1        0.0681
      7 N          63.5501   90.7941   11.4879 N.ar    1  UNL1       -0.2158
      8 C          63.1935   89.6896   12.4382 C.ar    1  UNL1        0.2248
      9 C          63.9179   89.5619   13.7454 C.ar    1  UNL1        0.0578
     10 C          64.9989   90.5387   14.1024 C.ar    1  UNL1        0.0105
     11 C          65.3555   91.6432   13.1521 C.ar    1  UNL1        0.0672
     12 H          67.5025   94.3654   12.7932 H       1  UNL1        0.1498
     13 O          62.1125   88.7128   12.0812 O.3     1  UNL1       -0.4552
     14 C          61.2447   88.9595   10.8829 C.3     1  UNL1        0.2338
     15 C          61.1088   87.9044    9.8254 C.ar    1  UNL1        0.0234
     16 C          59.8443   87.8034    9.0247 C.ar    1  UNL1       -0.0005
     17 C          59.7085   86.7484    7.9672 C.ar    1  UNL1        0.0021
     18 C          60.8370   85.7942    7.7104 C.ar    1  UNL1        0.0296
     19 C          62.1014   85.8951    8.5110 C.ar    1  UNL1        0.1399
     20 F          63.2300   84.9410    8.2541 F       1  UNL1       -0.2042
     21 C          62.2373   86.9502    9.5685 C.ar    1  UNL1        0.0290
@<TRIPOS>BOND
     1     1     2    2
     2     2     3   am
     3     3     4    1
     4     4     5    1
     5     5     6    1
     6     6     7   ar
     7     7     8   ar
     8     8    13    1
     9    13    14    1
    10    14    15    1
    11    15    16   ar
    12    16    17   ar
    13    17    18   ar
    14    18    19   ar
    15    19    20    1
    16    19    21   ar
    17     8     9   ar
    18     9    10   ar
    19    10    11   ar
    20    11     2    1
    21    11     6   ar
    22    21    15   ar
    23     3    12    1
@<TRIPOS>MOLECULE
*****
 21 23 0 0 0
SMALL
GASTEIGER

@<TRIPOS>ATOM
      1 O          64.6568   82.2177   10.0547 O.2     1  UNL1       -0.2701
      2 C          64.0225   82.9716   11.1857 C.2     1  UNL1        0.2470
      3 N          64.1510   82.4635   12.5912 N.am    1  UNL1       -0.3004
      4 C          63.5167   83.2174   13.7222 C.3     1  UNL1        0.0960
      5 C          62.7539   84.4794   13.4478 C.3     1  UNL1        0.0673
      6 C          62.6253   84.9875   12.0424 C.ar    1  UNL1        0.0681
      7 N          61.8624   86.2496   11.7680 N.ar    1  UNL1       -0.2158
      8 C          61.7339   86.7578   10.3626 C.ar    1  UNL1        0.2248
      9 C          62.3682   86.0039    9.2315 C.ar    1  UNL1        0.0578
     10 C          63.1311   84.7418    9.5059 C.ar    1  UNL1        0.0105
     11 C          63.2596   84.2337   10.9114 C.ar    1  UNL1        0.0672
     12 H          64.6517   81.6352   12.7712 H       1  UNL1        0.1498
     13 O          60.9710   88.0198   10.0882 O.3     1  UNL1       -0.4552
     14 C          60.9278   89.1091   11.1184 C.3     1  UNL1        0.2338
     15 C          62.1375   89.9630   11.3583 C.ar    1  UNL1        0.0234
     16 C          62.6614   90.8456   10.2644 C.ar    1  UNL1       -0.0005
     17 C          63.8711   91.6995   10.5042 C.ar    1  UNL1        0.0021
     18 C          64.5569   91.6707   11.8379 C.ar    1  UNL1        0.0296
     19 C          64.0331   90.7881   12.9318 C.ar    1  UNL1        0.1399
     20 F          64.7190   90.7594   14.2655 F       1  UNL1       -0.2042
     21 C          62.8234   89.9342   12.6920 C.ar    1  UNL1        0.0290
@<TRIPOS>BOND
     1     1     2    2
     2     2     3   am
     3     3     4    1
     4     4     5    1
     5     5     6    1
     6     6     7   ar
     7     7     8   ar
     8     8    13    1
     9    13    14    1
    10    14    15    1
    11    15    16   ar
    12    16    17   ar
    13    17    18   ar
    14    18    19   ar
    15    19    20    1
    16    19    21   ar
    17     8     9   ar
    18     9    10   ar
    19    10    11   ar
    20    11     2    1
    21    11     6   ar
    22    21    15   ar
    23     3    12    1
@<TRIPOS>MOLECULE
*****
 21 23 0 0 0
SMALL
GASTEIGER

@<TRIPOS>ATOM
      1 O          64.8085   93.1327   10.7103 O.2     1  UNL1       -0.2701
      2 C          64.7003   92.1765   11.8609 C.2     1  UNL1        0.2470
      3 N          65.4685   92.4324   13.1235 N.am    1  UNL1       -0.3004
      4 C          65.3604   91.4761   14.2741 C.3     1  UNL1        0.0960
      5 C          64.4840   90.2639   14.1620 C.3     1  UNL1        0.0673
      6 C          63.7158   90.0080   12.8994 C.ar    1  UNL1        0.0681
      7 N          62.8394   88.7958   12.7873 N.ar    1  UNL1       -0.2158
      8 C          62.0712   88.5399   11.5246 C.ar    1  UNL1        0.2248
      9 C          62.1793   89.4962   10.3740 C.ar    1  UNL1        0.0578
     10 C          63.0557   90.7084   10.4861 C.ar    1  UNL1        0.0105
     11 C          63.8240   90.9643   11.7488 C.ar    1  UNL1        0.0672
     12 H          66.0438   93.2280   13.1971 H       1  UNL1        0.1498
     13 O          61.1947   87.3277   11.4125 O.3     1  UNL1       -0.4552
     14 C          61.5250   86.2527   10.4200 C.3     1  UNL1        0.2338
     15 C          62.4995   85.1714   10.7820 C.ar    1  UNL1        0.0234
     16 C          62.8751   84.1305    9.7693 C.ar    1  UNL1       -0.0005
     17 C          63.8496   83.0492   10.1313 C.ar    1  UNL1        0.0021
     18 C          64.4485   83.0087   11.5060 C.ar    1  UNL1        0.0296
     19 C          64.0729   84.0496   12.5186 C.ar    1  UNL1        0.1399
     20 F          64.6718   84.0091   13.8933 F       1  UNL1       -0.2042
     21 C          63.0983   85.1309   12.1566 C.ar    1  UNL1        0.0290
@<TRIPOS>BOND
     1     1     2    2
     2     2     3   am
     3     3     4    1
     4     4     5    1
     5     5     6    1
     6     6     7   ar
     7     7     8   ar
     8     8    13    1
     9    13    14    1
    10    14    15    1
    11    15    16   ar
    12    16    17   ar
    13    17    18   ar
    14    18    19   ar
    15    19    20    1
    16    19    21   ar
    17     8     9   ar
    18     9    10   ar
    19    10    11   ar
    20    11     2    1
    21    11     6   ar
    22    21    15   ar
    23     3    12    1
@<TRIPOS>MOLECULE
*****
 21 23 0 0 0
SMALL
GASTEIGER

@<TRIPOS>ATOM
      1 O          62.7340   80.1846   14.2623 O.2     1  UNL1       -0.2701
      2 C          62.7661   81.6823   14.1868 C.2     1  UNL1        0.2470
      3 N          62.5109   82.5010   15.4175 N.am    1  UNL1       -0.3004
      4 C          62.5431   83.9987   15.3420 C.3     1  UNL1        0.0960
      5 C          62.8305   84.6778   14.0358 C.3     1  UNL1        0.0673
      6 C          63.0857   83.8592   12.8051 C.ar    1  UNL1        0.0681
      7 N          63.3731   84.5382   11.4988 N.ar    1  UNL1       -0.2158
      8 C          63.6282   83.7196   10.2681 C.ar    1  UNL1        0.2248
      9 C          63.5961   82.2218   10.3437 C.ar    1  UNL1        0.0578
     10 C          63.3087   81.5427   11.6499 C.ar    1  UNL1        0.0105
     11 C          63.0535   82.3614   12.8806 C.ar    1  UNL1        0.0672
     12 H          62.3223   82.0553   16.2748 H       1  UNL1        0.1498
     13 O          63.9156   84.3987    8.9619 O.3     1  UNL1       -0.4552
     14 C          62.7851   84.8138    8.0677 C.3     1  UNL1        0.2338
     15 C          61.9190   85.9787    8.4454 C.ar    1  UNL1        0.0234
     16 C          62.4564   87.0523    9.3448 C.ar    1  UNL1       -0.0005
     17 C          61.5903   88.2172    9.7226 C.ar    1  UNL1        0.0021
     18 C          60.1868   88.3087    9.2010 C.ar    1  UNL1        0.0296
     19 C          59.6495   87.2352    8.3017 C.ar    1  UNL1        0.1399
     20 F          58.2461   87.3266    7.7801 F       1  UNL1       -0.2042
     21 C          60.5156   86.0702    7.9239 C.ar    1  UNL1        0.0290
@<TRIPOS>BOND
     1     1     2    2
     2     2     3   am
     3     3     4    1
     4     4     5    1
     5     5     6    1
     6     6     7   ar
     7     7     8   ar
     8     8    13    1
     9    13    14    1
    10    14    15    1
    11    15    16   ar
    12    16    17   ar
    13    17    18   ar
    14    18    19   ar
    15    19    20    1
    16    19    21   ar
    17     8     9   ar
    18     9    10   ar
    19    10    11   ar
    20    11     2    1
    21    11     6   ar
    22    21    15   ar
    23     3    12    1
@<TRIPOS>MOLECULE
*****
 21 23 0 0 0
SMALL
GASTEIGER

@<TRIPOS>ATOM
      1 O          62.3783   82.4258   11.9326 O.2     1  UNL1       -0.2701
      2 C          63.0240   83.4196   12.8521 C.2     1  UNL1        0.2470
      3 N          63.7348   82.9482   14.0859 N.am    1  UNL1       -0.3004
      4 C          64.3806   83.9420   15.0054 C.3     1  UNL1        0.0960
      5 C          64.3154   85.4072   14.6910 C.3     1  UNL1        0.0673
      6 C          63.6045   85.8786   13.4572 C.ar    1  UNL1        0.0681
      7 N          63.5393   87.3439   13.1428 N.ar    1  UNL1       -0.2158
      8 C          62.8285   87.8153   11.9089 C.ar    1  UNL1        0.2248
      9 C          62.1828   86.8215   10.9895 C.ar    1  UNL1        0.0578
     10 C          62.2479   85.3563   11.3038 C.ar    1  UNL1        0.0105
     11 C          62.9588   84.8848   12.5377 C.ar    1  UNL1        0.0672
     12 H          63.7776   81.9865   14.2923 H       1  UNL1        0.1498
     13 O          62.7633   89.2805   11.5945 O.3     1  UNL1       -0.4552
     14 C          62.9536   90.2911   12.6865 C.3     1  UNL1        0.2338
     15 C          64.2553   91.0263   12.8093 C.ar    1  UNL1        0.0234
     16 C          64.7015   91.9495   11.7144 C.ar    1  UNL1       -0.0005
     17 C          66.0031   92.6847   11.8372 C.ar    1  UNL1        0.0021
     18 C          66.8586   92.4969   13.0549 C.ar    1  UNL1        0.0296
     19 C          66.4125   91.5738   14.1498 C.ar    1  UNL1        0.1399
     20 F          67.2680   91.3859   15.3675 F       1  UNL1       -0.2042
     21 C          65.1108   90.8385   14.0270 C.ar    1  UNL1        0.0290
@<TRIPOS>BOND
     1     1     2    2
     2     2     3   am
     3     3     4    1
     4     4     5    1
     5     5     6    1
     6     6     7   ar
     7     7     8   ar
     8     8    13    1
     9    13    14    1
    10    14    15    1
    11    15    16   ar
    12    16    17   ar
    13    17    18   ar
    14    18    19   ar
    15    19    20    1
    16    19    21   ar
    17     8     9   ar
    18     9    10   ar
    19    10    11   ar
    20    11     2    1
    21    11     6   ar
    22    21    15   ar
    23     3    12    1
@<TRIPOS>MOLECULE
*****
 21 23 0 0 0
SMALL
GASTEIGER

@<TRIPOS>ATOM
      1 O          62.2907   83.6539   15.6916 O.2     1  UNL1       -0.2701
      2 C          62.4743   82.6915   14.5558 C.2     1  UNL1        0.2470
      3 N          62.3819   81.2147   14.8017 N.am    1  UNL1       -0.3004
      4 C          62.5656   80.2523   13.6658 C.3     1  UNL1        0.0960
      5 C          62.8416   80.7667   12.2841 C.3     1  UNL1        0.0673
      6 C          62.9340   82.2435   12.0382 C.ar    1  UNL1        0.0681
      7 N          63.2100   82.7580   10.6565 N.ar    1  UNL1       -0.2158
      8 C          63.3024   84.2348   10.4106 C.ar    1  UNL1        0.2248
      9 C          63.1188   85.1972   11.5464 C.ar    1  UNL1        0.0578
     10 C          62.8427   84.6828   12.9281 C.ar    1  UNL1        0.0105
     11 C          62.7503   83.2059   13.1741 C.ar    1  UNL1        0.0672
     12 H          62.2008   80.8771   15.7085 H       1  UNL1        0.1498
     13 O          63.5784   84.7493    9.0288 O.3     1  UNL1       -0.4552
     14 C          62.4496   84.9371    8.0591 C.3     1  UNL1        0.2338
     15 C          61.4722   86.0581    8.2540 C.ar    1  UNL1        0.0234
     16 C          60.1012   85.9710    7.6515 C.ar    1  UNL1       -0.0005
     17 C          59.1238   87.0920    7.8465 C.ar    1  UNL1        0.0021
     18 C          59.5173   88.3000    8.6438 C.ar    1  UNL1        0.0296
     19 C          60.8882   88.3871    9.2463 C.ar    1  UNL1        0.1399
     20 F          61.2816   89.5952   10.0436 F       1  UNL1       -0.2042
     21 C          61.8657   87.2661    9.0514 C.ar    1  UNL1        0.0290
@<TRIPOS>BOND
     1     1     2    2
     2     2     3   am
     3     3     4    1
     4     4     5    1
     5     5     6    1
     6     6     7   ar
     7     7     8   ar
     8     8    13    1
     9    13    14    1
    10    14    15    1
    11    15    16   ar
    12    16    17   ar
    13    17    18   ar
    14    18    19   ar
    15    19    20    1
    16    19    21   ar
    17     8     9   ar
    18     9    10   ar
    19    10    11   ar
    20    11     2    1
    21    11     6   ar
    22    21    15   ar
    23     3    12    1
