@<TRIPOS>MOLECULE
*****
 34 37 0 0 0
SMALL
GASTEIGER

@<TRIPOS>ATOM
      1 C          62.3484   85.8649   11.5738 C.ar    1  UNL1       -0.0004
      2 C          62.7382   87.2729   11.9135 C.ar    1  UNL1       -0.0024
      3 C          62.1893   88.4169   11.1135 C.ar    1  UNL1       -0.0002
      4 C          61.2505   88.1527    9.9738 C.ar    1  UNL1        0.0030
      5 C          60.7016   89.2968    9.1737 C.ar    1  UNL1        0.0369
      6 C          59.7628   89.0326    8.0340 C.ar    1  UNL1        0.1386
      7 C          59.3729   87.6245    7.6944 C.ar    1  UNL1        0.0369
      8 C          59.9219   86.4806    8.4944 C.ar    1  UNL1        0.0031
      9 C          60.8606   86.7447    9.6341 C.ar    1  UNL1       -0.0001
     10 C          61.4096   85.6008   10.4341 C.ar    1  UNL1       -0.0024
     11 C          62.8973   84.7209   12.3739 C.3     1  UNL1        0.1240
     12 N          63.3070   83.4527   11.6855 N.ar    1  UNL1       -0.3045
     13 C          62.6864   82.1016   11.8840 C.ar    1  UNL1        0.0983
     14 C          63.4050   81.1268   10.9990 C.ar    1  UNL1        0.1193
     15 N          64.4698   81.8754   10.2535 N.ar    1  UNL1       -0.2223
     16 C          64.4092   83.3129   10.6778 C.ar    1  UNL1        0.1788
     17 C          62.0361   84.1883   14.7665 C.3     1  UNL1        0.0197
     18 C          63.0365   84.8451   13.8622 C.3     1  UNL1        0.0826
     19 N          64.1762   85.6262   14.4463 N.3     1  UNL1       -0.2721
     20 C          65.5776   85.1027   14.3380 C.3     1  UNL1        0.0896
     21 C          63.9143   86.9309   15.1387 C.3     1  UNL1        0.0576
     22 C          63.2736   86.9448   16.4949 C.3     1  UNL1        0.0160
     23 C          63.0117   88.2494   17.1872 C.3     1  UNL1        0.0014
     24 C          63.3905   89.5401   16.5234 C.3     1  UNL1        0.0001
     25 C          64.0312   89.5261   15.1672 C.3     1  UNL1        0.0014
     26 C          64.2931   88.2215   14.4748 C.3     1  UNL1        0.0160
     27 O          59.2139   90.1766    7.2340 O.3     1  UNL1       -0.4751
     28 C          59.1148   90.0684    5.7411 C.3     1  UNL1        0.2103
     29 C          59.2713   91.2925    4.8884 C.3     1  UNL1        0.0724
     30 C          57.7896   91.5194    4.9421 C.3     1  UNL1        0.0093
     31 C          60.7531   91.0656    4.8348 C.3     1  UNL1        0.0093
     32 C          59.4279   92.5165    4.0358 C.2     1  UNL1        0.0532
     33 O          59.6896   92.3778    2.5652 O.co2   1  UNL1       -0.5491
     34 O          59.3229   93.8794    4.6535 O.co2   1  UNL1       -0.5491
@<TRIPOS>UNITY_ATOM_ATTR
33 1
charge -1
@<TRIPOS>BOND
     1    18    17    1
     2    18    11    1
     3    11     1    1
     4     1     2   ar
     5     2     3   ar
     6     3     4   ar
     7     4     5   ar
     8     5     6   ar
     9     6    27    1
    10    27    28    1
    11    28    29    1
    12    29    30    1
    13    29    31    1
    14    29    32    1
    15    32    33   ar
    16    32    34   ar
    17     6     7   ar
    18     7     8   ar
    19     8     9   ar
    20     9    10   ar
    21    11    12    1
    22    12    13   ar
    23    13    14   ar
    24    14    15   ar
    25    15    16   ar
    26    18    19    1
    27    19    20    1
    28    19    21    1
    29    21    22    1
    30    22    23    1
    31    23    24    1
    32    24    25    1
    33    25    26    1
    34    10     1   ar
    35    16    12   ar
    36    26    21    1
    37     9     4   ar
@<TRIPOS>MOLECULE
*****
 34 37 0 0 0
SMALL
GASTEIGER

@<TRIPOS>ATOM
      1 C          62.7801   84.8910   12.0550 C.ar    1  UNL1       -0.0004
      2 C          63.1592   84.3394   10.7126 C.ar    1  UNL1       -0.0024
      3 C          62.5759   84.9345    9.4654 C.ar    1  UNL1       -0.0002
      4 C          61.6136   86.0811    9.5605 C.ar    1  UNL1        0.0030
      5 C          61.0303   86.6762    8.3131 C.ar    1  UNL1        0.0369
      6 C          60.0680   87.8229    8.4083 C.ar    1  UNL1        0.1386
      7 C          59.6889   88.3745    9.7507 C.ar    1  UNL1        0.0369
      8 C          60.2722   87.7794   10.9980 C.ar    1  UNL1        0.0031
      9 C          61.2345   86.6328   10.9028 C.ar    1  UNL1       -0.0001
     10 C          61.8178   86.0377   12.1501 C.ar    1  UNL1       -0.0024
     11 C          63.3634   84.2960   13.3023 C.3     1  UNL1        0.1240
     12 N          63.1652   82.8397   13.6022 N.ar    1  UNL1       -0.3045
     13 C          64.0595   81.7190   13.1613 C.ar    1  UNL1        0.0983
     14 C          63.4849   80.4351   13.6822 C.ar    1  UNL1        0.1193
     15 N          62.2355   80.7622   14.4451 N.ar    1  UNL1       -0.2223
     16 C          62.0379   82.2483   14.3956 C.ar    1  UNL1        0.1788
     17 C          65.6411   85.2083   14.1566 C.3     1  UNL1        0.0197
     18 C          64.1448   85.1572   14.2497 C.3     1  UNL1        0.0826
     19 N          63.4301   85.9674   15.2902 N.3     1  UNL1       -0.2721
     20 C          62.5457   85.2877   16.2932 C.3     1  UNL1        0.0896
     21 C          63.5996   87.4574   15.3277 C.3     1  UNL1        0.0576
     22 C          63.1517   88.2332   16.5308 C.3     1  UNL1        0.0160
     23 C          63.3213   89.7230   16.5683 C.3     1  UNL1        0.0014
     24 C          63.9388   90.4371   15.4026 C.3     1  UNL1        0.0001
     25 C          64.3867   89.6614   14.1995 C.3     1  UNL1        0.0014
     26 C          64.2172   88.1715   14.1621 C.3     1  UNL1        0.0160
     27 O          59.4847   88.4179    7.1610 O.3     1  UNL1       -0.4751
     28 C          60.0389   89.6987    6.6109 C.3     1  UNL1        0.2103
     29 C          59.1860   90.5715    5.7388 C.3     1  UNL1        0.0724
     30 C          60.4197   91.1553    5.1165 C.3     1  UNL1        0.0093
     31 C          57.9523   89.9878    6.3610 C.3     1  UNL1        0.0093
     32 C          58.3331   91.4444    4.8666 C.2     1  UNL1        0.0532
     33 O          58.9684   92.2959    3.8076 O.co2   1  UNL1       -0.5491
     34 O          56.8449   91.4658    5.0535 O.co2   1  UNL1       -0.5491
@<TRIPOS>UNITY_ATOM_ATTR
33 1
charge -1
@<TRIPOS>BOND
     1    18    17    1
     2    18    11    1
     3    11     1    1
     4     1     2   ar
     5     2     3   ar
     6     3     4   ar
     7     4     5   ar
     8     5     6   ar
     9     6    27    1
    10    27    28    1
    11    28    29    1
    12    29    30    1
    13    29    31    1
    14    29    32    1
    15    32    33   ar
    16    32    34   ar
    17     6     7   ar
    18     7     8   ar
    19     8     9   ar
    20     9    10   ar
    21    11    12    1
    22    12    13   ar
    23    13    14   ar
    24    14    15   ar
    25    15    16   ar
    26    18    19    1
    27    19    20    1
    28    19    21    1
    29    21    22    1
    30    22    23    1
    31    23    24    1
    32    24    25    1
    33    25    26    1
    34    10     1   ar
    35    16    12   ar
    36    26    21    1
    37     9     4   ar
@<TRIPOS>MOLECULE
*****
 34 37 0 0 0
SMALL
GASTEIGER

@<TRIPOS>ATOM
      1 C          64.2341   88.3982   14.2127 C.ar    1  UNL1       -0.0004
      2 C          63.4949   88.8604   12.9921 C.ar    1  UNL1       -0.0024
      3 C          63.7886   90.2082   12.4029 C.ar    1  UNL1       -0.0002
      4 C          64.8216   91.0937   13.0343 C.ar    1  UNL1        0.0030
      5 C          65.1153   92.4416   12.4450 C.ar    1  UNL1        0.0369
      6 C          66.1483   93.3272   13.0764 C.ar    1  UNL1        0.1386
      7 C          66.8876   92.8649   14.2971 C.ar    1  UNL1        0.0369
      8 C          66.5938   91.5172   14.8863 C.ar    1  UNL1        0.0031
      9 C          65.5609   90.6316   14.2549 C.ar    1  UNL1       -0.0001
     10 C          65.2671   89.2838   14.8441 C.ar    1  UNL1       -0.0024
     11 C          63.9404   87.0504   14.8020 C.3     1  UNL1        0.1240
     12 N          63.3274   86.9461   16.1670 N.ar    1  UNL1       -0.3045
     13 C          63.0960   88.0822   17.1188 C.ar    1  UNL1        0.0983
     14 C          62.4638   87.5256   18.3600 C.ar    1  UNL1        0.1193
     15 N          62.3045   86.0456   18.1754 N.ar    1  UNL1       -0.2223
     16 C          62.8382   85.6874   16.8201 C.ar    1  UNL1        0.1788
     17 C          65.5818   85.1240   14.2147 C.3     1  UNL1        0.0197
     18 C          64.2596   85.8070   14.0262 C.3     1  UNL1        0.0826
     19 N          63.2567   85.2464   13.0619 N.3     1  UNL1       -0.2721
     20 C          62.5630   86.1535   12.0893 C.3     1  UNL1        0.0896
     21 C          62.9474   83.7786   13.0702 C.3     1  UNL1        0.0576
     22 C          63.2517   82.9411   11.8635 C.3     1  UNL1        0.0160
     23 C          62.9425   81.4734   11.8719 C.3     1  UNL1        0.0014
     24 C          62.3289   80.8431   13.0869 C.3     1  UNL1        0.0001
     25 C          62.0246   81.6806   14.2936 C.3     1  UNL1        0.0014
     26 C          62.3338   83.1483   14.2852 C.3     1  UNL1        0.0160
     27 O          66.4421   94.6749   12.4872 O.3     1  UNL1       -0.4751
     28 C          65.7899   95.0898   11.2017 C.3     1  UNL1        0.2103
     29 C          66.6194   95.2766    9.9660 C.3     1  UNL1        0.0724
     30 C          66.7258   96.7437   10.2592 C.3     1  UNL1        0.0093
     31 C          66.5129   93.8094    9.6728 C.3     1  UNL1        0.0093
     32 C          67.4488   95.4633    8.7303 C.2     1  UNL1        0.0532
     33 O          68.0857   94.2775    8.0681 O.co2   1  UNL1       -0.5491
     34 O          67.6416   96.8358    8.1566 O.co2   1  UNL1       -0.5491
@<TRIPOS>UNITY_ATOM_ATTR
33 1
charge -1
@<TRIPOS>BOND
     1    18    17    1
     2    18    11    1
     3    11     1    1
     4     1     2   ar
     5     2     3   ar
     6     3     4   ar
     7     4     5   ar
     8     5     6   ar
     9     6    27    1
    10    27    28    1
    11    28    29    1
    12    29    30    1
    13    29    31    1
    14    29    32    1
    15    32    33   ar
    16    32    34   ar
    17     6     7   ar
    18     7     8   ar
    19     8     9   ar
    20     9    10   ar
    21    11    12    1
    22    12    13   ar
    23    13    14   ar
    24    14    15   ar
    25    15    16   ar
    26    18    19    1
    27    19    20    1
    28    19    21    1
    29    21    22    1
    30    22    23    1
    31    23    24    1
    32    24    25    1
    33    25    26    1
    34    10     1   ar
    35    16    12   ar
    36    26    21    1
    37     9     4   ar
@<TRIPOS>MOLECULE
*****
 34 37 0 0 0
SMALL
GASTEIGER

@<TRIPOS>ATOM
      1 C          63.0234   87.6772   12.8707 C.ar    1  UNL1       -0.0004
      2 C          62.9347   86.3993   12.0903 C.ar    1  UNL1       -0.0024
      3 C          62.1816   86.3632   10.7936 C.ar    1  UNL1       -0.0002
      4 C          61.5172   87.6050   10.2774 C.ar    1  UNL1        0.0030
      5 C          60.7640   87.5689    8.9806 C.ar    1  UNL1        0.0369
      6 C          60.0996   88.8107    8.4643 C.ar    1  UNL1        0.1386
      7 C          60.1884   90.0886    9.2448 C.ar    1  UNL1        0.0369
      8 C          60.9415   90.1247   10.5415 C.ar    1  UNL1        0.0031
      9 C          61.6059   88.8829   11.0578 C.ar    1  UNL1       -0.0001
     10 C          62.3591   88.9190   12.3545 C.ar    1  UNL1       -0.0024
     11 C          63.7766   87.7133   14.1675 C.3     1  UNL1        0.1240
     12 N          63.9615   89.0140   14.8914 N.ar    1  UNL1       -0.3045
     13 C          64.8983   90.1171   14.4972 C.ar    1  UNL1        0.0983
     14 C          64.7578   91.2248   15.4988 C.ar    1  UNL1        0.1193
     15 N          63.7341   90.8063   16.5121 N.ar    1  UNL1       -0.2223
     16 C          63.2419   89.4400   16.1367 C.ar    1  UNL1        0.1788
     17 C          65.8303   86.2430   14.7763 C.3     1  UNL1        0.0197
     18 C          64.3448   86.4488   14.7403 C.3     1  UNL1        0.0826
     19 N          63.4277   85.3902   15.2770 N.3     1  UNL1       -0.2721
     20 C          62.6276   85.6502   16.5188 C.3     1  UNL1        0.0896
     21 C          63.3108   84.0713   14.5719 C.3     1  UNL1        0.0576
     22 C          64.3321   83.6757   13.5471 C.3     1  UNL1        0.0160
     23 C          64.2152   82.3569   12.8420 C.3     1  UNL1        0.0014
     24 C          63.0769   81.4338   13.1618 C.3     1  UNL1        0.0001
     25 C          62.0556   81.8295   14.1866 C.3     1  UNL1        0.0014
     26 C          62.1725   83.1482   14.8917 C.3     1  UNL1        0.0160
     27 O          59.3465   88.7746    7.1676 O.3     1  UNL1       -0.4751
     28 C          59.8921   89.4833    5.9634 C.3     1  UNL1        0.2103
     29 C          59.2008   90.7052    5.4351 C.3     1  UNL1        0.0724
     30 C          60.4966   91.1863    4.8525 C.3     1  UNL1        0.0093
     31 C          57.9051   90.2241    6.0178 C.3     1  UNL1        0.0093
     32 C          58.5096   91.9271    4.9069 C.2     1  UNL1        0.0532
     33 O          59.3103   93.0296    4.2794 O.co2   1  UNL1       -0.5491
     34 O          57.0176   92.0466    5.0060 O.co2   1  UNL1       -0.5491
@<TRIPOS>UNITY_ATOM_ATTR
33 1
charge -1
@<TRIPOS>BOND
     1    18    17    1
     2    18    11    1
     3    11     1    1
     4     1     2   ar
     5     2     3   ar
     6     3     4   ar
     7     4     5   ar
     8     5     6   ar
     9     6    27    1
    10    27    28    1
    11    28    29    1
    12    29    30    1
    13    29    31    1
    14    29    32    1
    15    32    33   ar
    16    32    34   ar
    17     6     7   ar
    18     7     8   ar
    19     8     9   ar
    20     9    10   ar
    21    11    12    1
    22    12    13   ar
    23    13    14   ar
    24    14    15   ar
    25    15    16   ar
    26    18    19    1
    27    19    20    1
    28    19    21    1
    29    21    22    1
    30    22    23    1
    31    23    24    1
    32    24    25    1
    33    25    26    1
    34    10     1   ar
    35    16    12   ar
    36    26    21    1
    37     9     4   ar
@<TRIPOS>MOLECULE
*****
 34 37 0 0 0
SMALL
GASTEIGER

@<TRIPOS>ATOM
      1 C          61.5334   93.1094    2.0018 C.ar    1  UNL1       -0.0004
      2 C          62.6217   92.2733    2.6072 C.ar    1  UNL1       -0.0024
      3 C          62.3176   91.3717    3.7667 C.ar    1  UNL1       -0.0002
      4 C          60.9252   91.3063    4.3209 C.ar    1  UNL1        0.0030
      5 C          60.6212   90.4046    5.4806 C.ar    1  UNL1        0.0369
      6 C          59.2288   90.3392    6.0347 C.ar    1  UNL1        0.1386
      7 C          58.1406   91.1754    5.4293 C.ar    1  UNL1        0.0369
      8 C          58.4447   92.0770    4.2697 C.ar    1  UNL1        0.0031
      9 C          59.8370   92.1424    3.7155 C.ar    1  UNL1       -0.0001
     10 C          60.1411   93.0440    2.5560 C.ar    1  UNL1       -0.0024
     11 C          61.8375   94.0111    0.8422 C.3     1  UNL1        0.1240
     12 N          63.1237   94.7821    0.8088 N.ar    1  UNL1       -0.3045
     13 C          63.4321   96.0173    1.6020 C.ar    1  UNL1        0.0983
     14 C          64.8264   96.4519    1.2598 C.ar    1  UNL1        0.1193
     15 N          65.3797   95.4853    0.2550 N.ar    1  UNL1       -0.2223
     16 C          64.3274   94.4534   -0.0237 C.ar    1  UNL1        0.1788
     17 C          61.1470   93.5061   -1.6111 C.3     1  UNL1        0.0197
     18 C          60.8554   94.1417   -0.2840 C.3     1  UNL1        0.0826
     19 N          59.5815   94.9078   -0.0832 N.3     1  UNL1       -0.2721
     20 C          59.5905   96.1851    0.7033 C.3     1  UNL1        0.0896
     21 C          58.2986   94.3967   -0.6689 C.3     1  UNL1        0.0576
     22 C          57.2952   95.3591   -1.2318 C.3     1  UNL1        0.0160
     23 C          56.0124   94.8479   -1.8175 C.3     1  UNL1        0.0014
     24 C          55.7329   93.3744   -1.8402 C.3     1  UNL1        0.0001
     25 C          56.7363   92.4120   -1.2772 C.3     1  UNL1        0.0014
     26 C          58.0191   92.9231   -0.6915 C.3     1  UNL1        0.0160
     27 O          58.9247   89.4376    7.1943 O.3     1  UNL1       -0.4751
     28 C          59.7256   88.1863    7.4016 C.3     1  UNL1        0.2103
     29 C          60.0876   87.7489    8.7900 C.3     1  UNL1        0.0724
     30 C          60.1367   89.1824    9.2288 C.3     1  UNL1        0.0093
     31 C          60.0384   86.3154    8.3512 C.3     1  UNL1        0.0093
     32 C          60.4496   87.3115   10.1783 C.2     1  UNL1        0.0532
     33 O          61.1316   85.9933   10.3955 O.co2   1  UNL1       -0.5491
     34 O          60.1296   88.1923   11.3496 O.co2   1  UNL1       -0.5491
@<TRIPOS>UNITY_ATOM_ATTR
33 1
charge -1
@<TRIPOS>BOND
     1    18    17    1
     2    18    11    1
     3    11     1    1
     4     1     2   ar
     5     2     3   ar
     6     3     4   ar
     7     4     5   ar
     8     5     6   ar
     9     6    27    1
    10    27    28    1
    11    28    29    1
    12    29    30    1
    13    29    31    1
    14    29    32    1
    15    32    33   ar
    16    32    34   ar
    17     6     7   ar
    18     7     8   ar
    19     8     9   ar
    20     9    10   ar
    21    11    12    1
    22    12    13   ar
    23    13    14   ar
    24    14    15   ar
    25    15    16   ar
    26    18    19    1
    27    19    20    1
    28    19    21    1
    29    21    22    1
    30    22    23    1
    31    23    24    1
    32    24    25    1
    33    25    26    1
    34    10     1   ar
    35    16    12   ar
    36    26    21    1
    37     9     4   ar
@<TRIPOS>MOLECULE
*****
 34 37 0 0 0
SMALL
GASTEIGER

@<TRIPOS>ATOM
      1 C          62.5429   87.5095   10.9165 C.ar    1  UNL1       -0.0004
      2 C          62.3635   88.8489   10.2655 C.ar    1  UNL1       -0.0024
      3 C          62.8050   90.0935   10.9767 C.ar    1  UNL1       -0.0002
      4 C          63.4259   89.9988   12.3389 C.ar    1  UNL1        0.0030
      5 C          63.8674   91.2436   13.0501 C.ar    1  UNL1        0.0369
      6 C          64.4882   91.1488   14.4123 C.ar    1  UNL1        0.1386
      7 C          64.6675   89.8094   15.0633 C.ar    1  UNL1        0.0369
      8 C          64.2260   88.5647   14.3521 C.ar    1  UNL1        0.0031
      9 C          63.6052   88.6594   12.9899 C.ar    1  UNL1       -0.0001
     10 C          63.1637   87.4148   12.2787 C.ar    1  UNL1       -0.0024
     11 C          62.1013   86.2647   10.2053 C.3     1  UNL1        0.1240
     12 N          60.9798   86.3267    9.2112 N.ar    1  UNL1       -0.3045
     13 C          59.6994   87.0911    9.3730 C.ar    1  UNL1        0.0983
     14 C          58.8700   86.8721    8.1425 C.ar    1  UNL1        0.1193
     15 N          59.6378   85.9723    7.2201 N.ar    1  UNL1       -0.2223
     16 C          60.9417   85.6353    7.8806 C.ar    1  UNL1        0.1788
     17 C          63.6759   84.3389    9.4555 C.3     1  UNL1        0.0197
     18 C          62.7814   84.9580   10.4883 C.3     1  UNL1        0.0826
     19 N          62.5669   84.2704   11.8040 N.3     1  UNL1       -0.2721
     20 C          62.3061   85.0798   13.0396 C.3     1  UNL1        0.0896
     21 C          62.6132   82.7732   11.8841 C.3     1  UNL1        0.0576
     22 C          63.0738   81.9728   10.7021 C.3     1  UNL1        0.0160
     23 C          63.1201   80.4757   10.7822 C.3     1  UNL1        0.0014
     24 C          62.7057   79.7790   12.0443 C.3     1  UNL1        0.0001
     25 C          62.2451   80.5794   13.2263 C.3     1  UNL1        0.0014
     26 C          62.1988   82.0765   13.1462 C.3     1  UNL1        0.0160
     27 O          64.9297   92.3935   15.1235 O.3     1  UNL1       -0.4751
     28 C          66.3331   92.8958   14.9551 C.3     1  UNL1        0.2103
     29 C          67.0699   92.6470   13.6725 C.3     1  UNL1        0.0724
     30 C          67.8577   91.5569   14.3365 C.3     1  UNL1        0.0093
     31 C          66.2821   93.7371   13.0085 C.3     1  UNL1        0.0093
     32 C          67.8067   92.3982   12.3899 C.2     1  UNL1        0.0532
     33 O          67.3251   93.0242   11.1146 O.co2   1  UNL1       -0.5491
     34 O          69.0252   91.5233   12.3824 O.co2   1  UNL1       -0.5491
@<TRIPOS>UNITY_ATOM_ATTR
33 1
charge -1
@<TRIPOS>BOND
     1    18    17    1
     2    18    11    1
     3    11     1    1
     4     1     2   ar
     5     2     3   ar
     6     3     4   ar
     7     4     5   ar
     8     5     6   ar
     9     6    27    1
    10    27    28    1
    11    28    29    1
    12    29    30    1
    13    29    31    1
    14    29    32    1
    15    32    33   ar
    16    32    34   ar
    17     6     7   ar
    18     7     8   ar
    19     8     9   ar
    20     9    10   ar
    21    11    12    1
    22    12    13   ar
    23    13    14   ar
    24    14    15   ar
    25    15    16   ar
    26    18    19    1
    27    19    20    1
    28    19    21    1
    29    21    22    1
    30    22    23    1
    31    23    24    1
    32    24    25    1
    33    25    26    1
    34    10     1   ar
    35    16    12   ar
    36    26    21    1
    37     9     4   ar
@<TRIPOS>MOLECULE
*****
 34 37 0 0 0
SMALL
GASTEIGER

@<TRIPOS>ATOM
      1 C          64.2772   89.5364   13.4747 C.ar    1  UNL1       -0.0004
      2 C          63.4697   89.0798   12.2960 C.ar    1  UNL1       -0.0024
      3 C          62.9899   87.6607   12.2201 C.ar    1  UNL1       -0.0002
      4 C          63.3176   86.6982   13.3229 C.ar    1  UNL1        0.0030
      5 C          62.8377   85.2790   13.2469 C.ar    1  UNL1        0.0369
      6 C          63.1654   84.3164   14.3497 C.ar    1  UNL1        0.1386
      7 C          63.9730   84.7731   15.5284 C.ar    1  UNL1        0.0369
      8 C          64.4528   86.1922   15.6044 C.ar    1  UNL1        0.0031
      9 C          64.1251   87.1548   14.5016 C.ar    1  UNL1       -0.0001
     10 C          64.6050   88.5739   14.5775 C.ar    1  UNL1       -0.0024
     11 C          64.7571   90.9556   13.5507 C.3     1  UNL1        0.1240
     12 N          64.9609   91.6079   14.8860 N.ar    1  UNL1       -0.3045
     13 C          66.2174   92.2779   15.3573 C.ar    1  UNL1        0.0983
     14 C          65.9771   92.7889   16.7470 C.ar    1  UNL1        0.1193
     15 N          64.5720   92.4346   17.1345 N.ar    1  UNL1       -0.2223
     16 C          63.9440   91.7048   15.9843 C.ar    1  UNL1        0.1788
     17 C          63.9491   91.9034   11.2706 C.3     1  UNL1        0.0197
     18 C          65.0332   91.7224   12.2914 C.3     1  UNL1        0.0826
     19 N          66.3933   92.3082   12.0529 N.3     1  UNL1       -0.2721
     20 C          67.6026   91.6732   12.6728 C.3     1  UNL1        0.0896
     21 C          66.5440   93.5291   11.1945 C.3     1  UNL1        0.0576
     22 C          66.1534   94.8749   11.7294 C.3     1  UNL1        0.0160
     23 C          66.3042   96.0957   10.8710 C.3     1  UNL1        0.0014
     24 C          66.8456   95.9706    9.4777 C.3     1  UNL1        0.0001
     25 C          67.2363   94.6248    8.9428 C.3     1  UNL1        0.0014
     26 C          67.0855   93.4040    9.8012 C.3     1  UNL1        0.0160
     27 O          62.6856   82.8973   14.2738 O.3     1  UNL1       -0.4751
     28 C          63.5627   81.8402   13.6709 C.3     1  UNL1        0.2103
     29 C          63.6423   81.6920   12.1804 C.3     1  UNL1        0.0724
     30 C          64.8259   82.6130   12.1521 C.3     1  UNL1        0.0093
     31 C          62.4587   80.7711   12.2088 C.3     1  UNL1        0.0093
     32 C          63.7219   81.5438   10.6899 C.2     1  UNL1        0.0532
     33 O          64.5294   82.5158    9.8816 O.co2   1  UNL1       -0.5491
     34 O          62.9941   80.4236   10.0077 O.co2   1  UNL1       -0.5491
@<TRIPOS>UNITY_ATOM_ATTR
33 1
charge -1
@<TRIPOS>BOND
     1    18    17    1
     2    18    11    1
     3    11     1    1
     4     1     2   ar
     5     2     3   ar
     6     3     4   ar
     7     4     5   ar
     8     5     6   ar
     9     6    27    1
    10    27    28    1
    11    28    29    1
    12    29    30    1
    13    29    31    1
    14    29    32    1
    15    32    33   ar
    16    32    34   ar
    17     6     7   ar
    18     7     8   ar
    19     8     9   ar
    20     9    10   ar
    21    11    12    1
    22    12    13   ar
    23    13    14   ar
    24    14    15   ar
    25    15    16   ar
    26    18    19    1
    27    19    20    1
    28    19    21    1
    29    21    22    1
    30    22    23    1
    31    23    24    1
    32    24    25    1
    33    25    26    1
    34    10     1   ar
    35    16    12   ar
    36    26    21    1
    37     9     4   ar
@<TRIPOS>MOLECULE
*****
 34 37 0 0 0
SMALL
GASTEIGER

@<TRIPOS>ATOM
      1 C          63.1774   86.6176   12.0164 C.ar    1  UNL1       -0.0004
      2 C          63.6040   86.1900   13.3894 C.ar    1  UNL1       -0.0024
      3 C          64.0000   87.2191   14.4062 C.ar    1  UNL1       -0.0002
      4 C          63.9694   88.6759   14.0501 C.ar    1  UNL1        0.0030
      5 C          64.3655   89.7051   15.0670 C.ar    1  UNL1        0.0369
      6 C          64.3349   91.1618   14.7109 C.ar    1  UNL1        0.1386
      7 C          63.9083   91.5895   13.3378 C.ar    1  UNL1        0.0369
      8 C          63.5123   90.5603   12.3210 C.ar    1  UNL1        0.0031
      9 C          63.5429   89.1035   12.6771 C.ar    1  UNL1       -0.0001
     10 C          63.1469   88.0744   11.6603 C.ar    1  UNL1       -0.0024
     11 C          62.7814   85.5885   10.9995 C.3     1  UNL1        0.1240
     12 N          62.8005   84.1324   11.3593 N.ar    1  UNL1       -0.3045
     13 C          62.1943   83.5195   12.5869 C.ar    1  UNL1        0.0983
     14 C          62.4484   82.0419   12.5410 C.ar    1  UNL1        0.1193
     15 N          63.2117   81.7415   11.2852 N.ar    1  UNL1       -0.2223
     16 C          63.4293   83.0335   10.5549 C.ar    1  UNL1        0.1788
     17 C          63.3146   85.8590    8.4711 C.3     1  UNL1        0.0197
     18 C          62.3662   86.0154    9.6228 C.3     1  UNL1        0.0826
     19 N          61.0028   86.5988    9.3977 N.3     1  UNL1       -0.2721
     20 C          60.0256   85.8974    8.5016 C.3     1  UNL1        0.0896
     21 C          60.6166   87.8835   10.0688 C.3     1  UNL1        0.0576
     22 C          59.8583   87.8554   11.3627 C.3     1  UNL1        0.0160
     23 C          59.4722   89.1401   12.0337 C.3     1  UNL1        0.0014
     24 C          59.8442   90.4530   11.4109 C.3     1  UNL1        0.0001
     25 C          60.6025   90.4811   10.1170 C.3     1  UNL1        0.0014
     26 C          60.9887   89.1964    9.4459 C.3     1  UNL1        0.0160
     27 O          64.7309   92.1910   15.7277 O.3     1  UNL1       -0.4751
     28 C          66.1768   92.5454   15.9123 C.3     1  UNL1        0.2103
     29 C          67.1243   92.4584   14.7528 C.3     1  UNL1        0.0724
     30 C          66.5852   93.7508   14.2153 C.3     1  UNL1        0.0093
     31 C          67.6633   91.1659   15.2903 C.3     1  UNL1        0.0093
     32 C          68.0718   92.3713   13.5932 C.2     1  UNL1        0.0532
     33 O          69.5470   92.2515   13.8374 O.co2   1  UNL1       -0.5491
     34 O          67.5442   92.4040   12.1895 O.co2   1  UNL1       -0.5491
@<TRIPOS>UNITY_ATOM_ATTR
33 1
charge -1
@<TRIPOS>BOND
     1    18    17    1
     2    18    11    1
     3    11     1    1
     4     1     2   ar
     5     2     3   ar
     6     3     4   ar
     7     4     5   ar
     8     5     6   ar
     9     6    27    1
    10    27    28    1
    11    28    29    1
    12    29    30    1
    13    29    31    1
    14    29    32    1
    15    32    33   ar
    16    32    34   ar
    17     6     7   ar
    18     7     8   ar
    19     8     9   ar
    20     9    10   ar
    21    11    12    1
    22    12    13   ar
    23    13    14   ar
    24    14    15   ar
    25    15    16   ar
    26    18    19    1
    27    19    20    1
    28    19    21    1
    29    21    22    1
    30    22    23    1
    31    23    24    1
    32    24    25    1
    33    25    26    1
    34    10     1   ar
    35    16    12   ar
    36    26    21    1
    37     9     4   ar
@<TRIPOS>MOLECULE
*****
 34 37 0 0 0
SMALL
GASTEIGER

@<TRIPOS>ATOM
      1 C          61.2417   93.1006    2.0582 C.ar    1  UNL1       -0.0004
      2 C          62.3675   92.2905    2.6293 C.ar    1  UNL1       -0.0024
      3 C          62.1163   91.3672    3.7845 C.ar    1  UNL1       -0.0002
      4 C          60.7393   91.2541    4.3685 C.ar    1  UNL1        0.0030
      5 C          60.4881   90.3307    5.5237 C.ar    1  UNL1        0.0369
      6 C          59.1111   90.2176    6.1077 C.ar    1  UNL1        0.1386
      7 C          57.9853   91.0278    5.5365 C.ar    1  UNL1        0.0369
      8 C          58.2365   91.9511    4.3814 C.ar    1  UNL1        0.0031
      9 C          59.6135   92.0642    3.7974 C.ar    1  UNL1       -0.0001
     10 C          59.8647   92.9875    2.6422 C.ar    1  UNL1       -0.0024
     11 C          61.4929   94.0240    0.9030 C.3     1  UNL1        0.1240
     12 N          60.6115   93.9654   -0.3093 N.ar    1  UNL1       -0.3045
     13 C          60.1562   95.1384   -1.1259 C.ar    1  UNL1        0.0983
     14 C          59.2940   94.6215   -2.2392 C.ar    1  UNL1        0.1193
     15 N          59.2164   93.1290   -2.1107 N.ar    1  UNL1       -0.2223
     16 C          60.0307   92.7236   -0.9180 C.ar    1  UNL1        0.1788
     17 C          62.4210   96.3506    1.5928 C.3     1  UNL1        0.0197
     18 C          62.6254   95.0059    0.9602 C.3     1  UNL1        0.0826
     19 N          63.9623   94.6431    0.3848 N.3     1  UNL1       -0.2721
     20 C          65.0785   94.2169    1.2916 C.3     1  UNL1        0.0896
     21 C          64.1830   94.7066   -1.0976 C.3     1  UNL1        0.0576
     22 C          63.7424   93.5694   -1.9708 C.3     1  UNL1        0.0160
     23 C          63.9631   93.6330   -3.4531 C.3     1  UNL1        0.0014
     24 C          64.6244   94.8337   -4.0622 C.3     1  UNL1        0.0001
     25 C          65.0650   95.9709   -3.1889 C.3     1  UNL1        0.0014
     26 C          64.8443   95.9074   -1.7066 C.3     1  UNL1        0.0160
     27 O          58.8599   89.2943    7.2628 O.3     1  UNL1       -0.4751
     28 C          59.7752   88.1310    7.5060 C.3     1  UNL1        0.2103
     29 C          60.1429   87.7464    8.9085 C.3     1  UNL1        0.0724
     30 C          60.1740   89.1947    9.2975 C.3     1  UNL1        0.0093
     31 C          60.1118   86.2981    8.5194 C.3     1  UNL1        0.0093
     32 C          60.5106   87.3618   10.3109 C.2     1  UNL1        0.0532
     33 O          61.3695   86.1570   10.5575 O.co2   1  UNL1       -0.5491
     34 O          60.0193   88.1819   11.4668 O.co2   1  UNL1       -0.5491
@<TRIPOS>UNITY_ATOM_ATTR
33 1
charge -1
@<TRIPOS>BOND
     1    18    17    1
     2    18    11    1
     3    11     1    1
     4     1     2   ar
     5     2     3   ar
     6     3     4   ar
     7     4     5   ar
     8     5     6   ar
     9     6    27    1
    10    27    28    1
    11    28    29    1
    12    29    30    1
    13    29    31    1
    14    29    32    1
    15    32    33   ar
    16    32    34   ar
    17     6     7   ar
    18     7     8   ar
    19     8     9   ar
    20     9    10   ar
    21    11    12    1
    22    12    13   ar
    23    13    14   ar
    24    14    15   ar
    25    15    16   ar
    26    18    19    1
    27    19    20    1
    28    19    21    1
    29    21    22    1
    30    22    23    1
    31    23    24    1
    32    24    25    1
    33    25    26    1
    34    10     1   ar
    35    16    12   ar
    36    26    21    1
    37     9     4   ar
