@<TRIPOS>MOLECULE
*****
 43 46 0 0 0
SMALL
GASTEIGER

@<TRIPOS>ATOM
      1 N          60.4755   89.7325    8.4407 N.am    1  UNL1       -0.2825
      2 C          59.6519   88.8743    7.5270 C.2     1  UNL1        0.2461
      3 O          59.5765   87.3935    7.7545 O.2     1  UNL1       -0.2729
      4 H          60.5250   90.7044    8.2914 H       1  UNL1        0.1549
      5 C          62.7207   87.8651   11.8646 C.ar    1  UNL1       -0.0022
      6 C          62.1415   86.9985   10.7858 C.ar    1  UNL1       -0.0017
      7 C          61.3932   87.6209    9.6446 C.ar    1  UNL1        0.0144
      8 C          61.2239   89.1100    9.5820 C.ar    1  UNL1        0.0503
      9 C          61.8031   89.9767   10.6607 C.ar    1  UNL1        0.0182
     10 C          62.5514   89.3542   11.8020 C.ar    1  UNL1        0.0700
     11 C          63.1306   90.2209   12.8806 C.3     1  UNL1        0.4184
     12 F          63.7097   91.0875   13.9593 F       1  UNL1       -0.1659
     13 F          61.9915   89.8556   13.7856 F       1  UNL1       -0.1659
     14 F          64.2696   90.5861   11.9756 F       1  UNL1       -0.1659
     15 C          63.4690   87.2426   13.0058 C.3     1  UNL1        0.0992
     16 N          63.3478   82.7852   13.6114 N.3     1  UNL1       -0.2703
     17 C          62.8216   83.3841   12.3408 C.3     1  UNL1        0.0897
     18 C          62.8620   84.8699   12.1389 C.3     1  UNL1        0.0899
     19 N          63.4286   85.7568   13.2077 N.3     1  UNL1       -0.2665
     20 C          63.9548   85.1580   14.4782 C.3     1  UNL1        0.0899
     21 C          63.9144   83.6722   14.6801 C.3     1  UNL1        0.0897
     22 C          62.0147   80.5556   13.6529 C.3     1  UNL1        0.0188
     23 C          63.3074   81.2994   13.8133 C.3     1  UNL1        0.0722
     24 C          58.9035   89.4967    6.3858 C.3     1  UNL1        0.1739
     25 N          59.0233   90.9690    6.1244 N.pl3   1  UNL1       -0.3253
     26 H          58.5808   91.6129    6.7234 H       1  UNL1        0.1473
     27 C          59.8174   91.4601    4.9505 C.ar    1  UNL1        0.0450
     28 C          61.2365   91.0114    4.7644 C.ar    1  UNL1        0.0143
     29 C          62.0307   91.5026    3.5905 C.ar    1  UNL1        0.0013
     30 C          61.4056   92.4425    2.6026 C.ar    1  UNL1        0.0016
     31 C          59.9864   92.8912    2.7887 C.ar    1  UNL1        0.0013
     32 C          59.1923   92.4000    3.9626 C.ar    1  UNL1        0.0143
     33 C          62.1997   92.9336    1.4286 C.ar    1  UNL1        0.0193
     34 C          63.6876   93.0871    1.5410 C.ar    1  UNL1        0.0044
     35 C          64.4817   93.5782    0.3670 C.ar    1  UNL1        0.0345
     36 C          63.7879   93.9160   -0.9193 C.ar    1  UNL1        0.1342
     37 N          62.3000   93.7626   -1.0316 N.ar    1  UNL1       -0.2290
     38 C          61.5059   93.2714    0.1423 C.ar    1  UNL1        0.1003
     39 N          64.5819   94.4072   -2.0932 N.am    1  UNL1       -0.2693
     40 C          64.6605   95.8768   -2.3836 C.2     1  UNL1        0.2277
     41 C          65.4545   96.3679   -3.5575 C.3     1  UNL1        0.0950
     42 O          63.9449   96.8551   -1.4999 O.2     1  UNL1       -0.2747
     43 H          65.0516   93.7650   -2.6732 H       1  UNL1        0.1563
@<TRIPOS>BOND
     1    22    23    1
     2    23    16    1
     3    16    17    1
     4    17    18    1
     5    18    19    1
     6    19    15    1
     7    15     5    1
     8     5     6   ar
     9     6     7   ar
    10     7     8   ar
    11     8     1    1
    12     1     2   am
    13     2     3    2
    14     2    24    1
    15    24    25    1
    16    25    27    1
    17    27    28   ar
    18    28    29   ar
    19    29    30   ar
    20    30    33    1
    21    33    34   ar
    22    34    35   ar
    23    35    36   ar
    24    36    39    1
    25    39    40   am
    26    40    41    1
    27    40    42    2
    28    36    37   ar
    29    37    38   ar
    30    30    31   ar
    31    31    32   ar
    32     8     9   ar
    33     9    10   ar
    34    10    11    1
    35    11    12    1
    36    11    13    1
    37    11    14    1
    38    19    20    1
    39    20    21    1
    40    21    16    1
    41    10     5   ar
    42    32    27   ar
    43    38    33   ar
    44     1     4    1
    45    25    26    1
    46    39    43    1
@<TRIPOS>MOLECULE
*****
 43 46 0 0 0
SMALL
GASTEIGER

@<TRIPOS>ATOM
      1 N          63.9140   90.0979   14.7365 N.am    1  UNL1       -0.2825
      2 C          63.4902   90.5093   16.1153 C.2     1  UNL1        0.2461
      3 O          63.9891   91.7973   16.7003 O.2     1  UNL1       -0.2729
      4 H          63.5866   89.2525   14.3526 H       1  UNL1        0.1549
      5 C          66.6822   92.7277   12.3548 C.ar    1  UNL1       -0.0022
      6 C          65.3982   92.2454   11.7473 C.ar    1  UNL1       -0.0017
      7 C          64.4756   91.3689   12.5412 C.ar    1  UNL1        0.0144
      8 C          64.8368   90.9745   13.9426 C.ar    1  UNL1        0.0503
      9 C          66.1206   91.4567   14.5502 C.ar    1  UNL1        0.0182
     10 C          67.0434   92.3333   13.7563 C.ar    1  UNL1        0.0700
     11 C          68.3272   92.8154   14.3638 C.3     1  UNL1        0.4184
     12 F          69.6111   93.2976   14.9714 F       1  UNL1       -0.1659
     13 F          69.0735   91.7273   13.6504 F       1  UNL1       -0.1659
     14 F          67.5810   93.9036   15.0772 F       1  UNL1       -0.1659
     15 C          67.6048   93.6042   11.5610 C.3     1  UNL1        0.0992
     16 N          66.0000   96.0410    8.1351 N.3     1  UNL1       -0.2703
     17 C          67.0569   95.0056    7.8887 C.3     1  UNL1        0.0897
     18 C          67.5918   94.1933    9.0306 C.3     1  UNL1        0.0899
     19 N          67.0699   94.4165   10.4190 N.3     1  UNL1       -0.2665
     20 C          66.0130   95.4519   10.6655 C.3     1  UNL1        0.0899
     21 C          65.4781   96.2642    9.5235 C.3     1  UNL1        0.0897
     22 C          65.4154   96.2663    5.6137 C.3     1  UNL1        0.0188
     23 C          65.4651   96.8533    6.9932 C.3     1  UNL1        0.0722
     24 C          62.5675   89.6327   16.9091 C.3     1  UNL1        0.1739
     25 N          63.0838   88.3691   17.5311 N.pl3   1  UNL1       -0.3253
     26 H          63.4528   88.3847   18.4437 H       1  UNL1        0.1473
     27 C          63.0378   87.0818   16.7626 C.ar    1  UNL1        0.0450
     28 C          63.9839   86.8557   15.6208 C.ar    1  UNL1        0.0143
     29 C          63.9380   85.5683   14.8523 C.ar    1  UNL1        0.0013
     30 C          62.9459   84.5070   15.2257 C.ar    1  UNL1        0.0016
     31 C          61.9998   84.7331   16.3676 C.ar    1  UNL1        0.0013
     32 C          62.0458   86.0204   17.1360 C.ar    1  UNL1        0.0143
     33 C          62.8999   83.2196   14.4572 C.ar    1  UNL1        0.0193
     34 C          61.7251   82.2989   14.6060 C.ar    1  UNL1        0.0044
     35 C          61.6791   81.0115   13.8375 C.ar    1  UNL1        0.0345
     36 C          62.8080   80.6449   12.9203 C.ar    1  UNL1        0.1342
     37 N          63.9827   81.5655   12.7715 N.ar    1  UNL1       -0.2290
     38 C          64.0288   82.8530   13.5400 C.ar    1  UNL1        0.1003
     39 N          62.7620   79.3575   12.1519 N.am    1  UNL1       -0.2693
     40 C          62.9024   79.3700   10.6584 C.2     1  UNL1        0.2277
     41 C          62.8564   78.0827    9.8900 C.3     1  UNL1        0.0950
     42 O          63.0887   80.6700    9.9336 O.2     1  UNL1       -0.2747
     43 H          62.6397   78.5043   12.6276 H       1  UNL1        0.1563
@<TRIPOS>BOND
     1    22    23    1
     2    23    16    1
     3    16    17    1
     4    17    18    1
     5    18    19    1
     6    19    15    1
     7    15     5    1
     8     5     6   ar
     9     6     7   ar
    10     7     8   ar
    11     8     1    1
    12     1     2   am
    13     2     3    2
    14     2    24    1
    15    24    25    1
    16    25    27    1
    17    27    28   ar
    18    28    29   ar
    19    29    30   ar
    20    30    33    1
    21    33    34   ar
    22    34    35   ar
    23    35    36   ar
    24    36    39    1
    25    39    40   am
    26    40    41    1
    27    40    42    2
    28    36    37   ar
    29    37    38   ar
    30    30    31   ar
    31    31    32   ar
    32     8     9   ar
    33     9    10   ar
    34    10    11    1
    35    11    12    1
    36    11    13    1
    37    11    14    1
    38    19    20    1
    39    20    21    1
    40    21    16    1
    41    10     5   ar
    42    32    27   ar
    43    38    33   ar
    44     1     4    1
    45    25    26    1
    46    39    43    1
@<TRIPOS>MOLECULE
*****
 43 46 0 0 0
SMALL
GASTEIGER

@<TRIPOS>ATOM
      1 N          58.6715   89.9697    6.1990 N.am    1  UNL1       -0.2825
      2 C          59.5185   90.7799    5.2629 C.2     1  UNL1        0.2461
      3 O          60.9884   90.9304    5.5214 O.2     1  UNL1       -0.2729
      4 H          57.7068   89.8709    6.0293 H       1  UNL1        0.1549
      5 C          60.5401   87.9908    9.7827 C.ar    1  UNL1       -0.0022
      6 C          59.7265   87.1804    8.8175 C.ar    1  UNL1       -0.0017
      7 C          59.1037   87.8400    7.6230 C.ar    1  UNL1        0.0144
      8 C          59.2944   89.3101    7.3936 C.ar    1  UNL1        0.0503
      9 C          60.1079   90.1204    8.3587 C.ar    1  UNL1        0.0182
     10 C          60.7308   89.4608    9.5533 C.ar    1  UNL1        0.0700
     11 C          61.5443   90.2712   10.5183 C.3     1  UNL1        0.4184
     12 F          62.3578   91.0816   11.4834 F       1  UNL1       -0.1659
     13 F          60.2912   90.6697   11.2400 F       1  UNL1       -0.1659
     14 F          62.7974   89.8727    9.7967 F       1  UNL1       -0.1659
     15 C          61.1629   87.3311   10.9772 C.3     1  UNL1        0.0992
     16 N          63.4324   83.4759   10.4903 N.3     1  UNL1       -0.2703
     17 C          63.2388   84.3860    9.3138 C.3     1  UNL1        0.0897
     18 C          62.4823   85.6710    9.4760 C.3     1  UNL1        0.0899
     19 N          61.9194   86.0460   10.8149 N.3     1  UNL1       -0.2665
     20 C          62.1130   85.1360   11.9914 C.3     1  UNL1        0.0899
     21 C          62.8695   83.8509   11.8291 C.3     1  UNL1        0.0897
     22 C          63.4623   80.8800   10.3889 C.3     1  UNL1        0.0188
     23 C          64.1889   82.1909   10.3280 C.3     1  UNL1        0.0722
     24 C          58.8956   91.4395    4.0684 C.3     1  UNL1        0.1739
     25 N          59.2826   92.8407    3.6986 N.pl3   1  UNL1       -0.3253
     26 H          59.0277   93.5920    4.2815 H       1  UNL1        0.1473
     27 C          60.0581   93.0973    2.4405 C.ar    1  UNL1        0.0450
     28 C          61.5563   93.0274    2.4556 C.ar    1  UNL1        0.0143
     29 C          62.3319   93.2840    1.1975 C.ar    1  UNL1        0.0013
     30 C          61.6091   93.6106   -0.0757 C.ar    1  UNL1        0.0016
     31 C          60.1107   93.6805   -0.0907 C.ar    1  UNL1        0.0013
     32 C          59.3353   93.4239    1.1673 C.ar    1  UNL1        0.0143
     33 C          62.3845   93.8672   -1.3338 C.ar    1  UNL1        0.0193
     34 C          61.8092   93.4753   -2.6625 C.ar    1  UNL1        0.0044
     35 C          62.5847   93.7319   -3.9206 C.ar    1  UNL1        0.0345
     36 C          63.9354   94.3804   -3.8500 C.ar    1  UNL1        0.1342
     37 N          64.5107   94.7723   -2.5213 N.ar    1  UNL1       -0.2290
     38 C          63.7352   94.5157   -1.2631 C.ar    1  UNL1        0.1003
     39 N          64.7109   94.6370   -5.1081 N.am    1  UNL1       -0.2693
     40 C          65.4239   93.5089   -5.7929 C.2     1  UNL1        0.2277
     41 C          66.1994   93.7655   -7.0510 C.3     1  UNL1        0.0950
     42 O          65.3615   92.1242   -5.2196 O.2     1  UNL1       -0.2747
     43 H          64.7518   95.5459   -5.4843 H       1  UNL1        0.1563
@<TRIPOS>BOND
     1    22    23    1
     2    23    16    1
     3    16    17    1
     4    17    18    1
     5    18    19    1
     6    19    15    1
     7    15     5    1
     8     5     6   ar
     9     6     7   ar
    10     7     8   ar
    11     8     1    1
    12     1     2   am
    13     2     3    2
    14     2    24    1
    15    24    25    1
    16    25    27    1
    17    27    28   ar
    18    28    29   ar
    19    29    30   ar
    20    30    33    1
    21    33    34   ar
    22    34    35   ar
    23    35    36   ar
    24    36    39    1
    25    39    40   am
    26    40    41    1
    27    40    42    2
    28    36    37   ar
    29    37    38   ar
    30    30    31   ar
    31    31    32   ar
    32     8     9   ar
    33     9    10   ar
    34    10    11    1
    35    11    12    1
    36    11    13    1
    37    11    14    1
    38    19    20    1
    39    20    21    1
    40    21    16    1
    41    10     5   ar
    42    32    27   ar
    43    38    33   ar
    44     1     4    1
    45    25    26    1
    46    39    43    1
@<TRIPOS>MOLECULE
*****
 43 46 0 0 0
SMALL
GASTEIGER

@<TRIPOS>ATOM
      1 N          58.8748   89.0131    7.1181 N.am    1  UNL1       -0.2825
      2 C          59.3530   90.0712    6.1684 C.2     1  UNL1        0.2461
      3 O          60.7583   90.5865    6.2656 O.2     1  UNL1       -0.2729
      4 H          57.9525   88.6749    7.0543 H       1  UNL1        0.1549
      5 C          61.6563   87.3849   10.2587 C.ar    1  UNL1       -0.0022
      6 C          60.9950   86.4533    9.2865 C.ar    1  UNL1       -0.0017
      7 C          60.0679   86.9961    8.2397 C.ar    1  UNL1        0.0144
      8 C          59.8020   88.4704    8.1650 C.ar    1  UNL1        0.0503
      9 C          60.4632   89.4020    9.1370 C.ar    1  UNL1        0.0182
     10 C          61.3903   88.8593   10.1839 C.ar    1  UNL1        0.0700
     11 C          62.0515   89.7909   11.1559 C.3     1  UNL1        0.4184
     12 F          62.7127   90.7225   12.1280 F       1  UNL1       -0.1659
     13 F          63.2050   89.9574   10.2117 F       1  UNL1       -0.1659
     14 F          60.8980   89.6244   12.1001 F       1  UNL1       -0.1659
     15 C          62.5834   86.8422   11.3055 C.3     1  UNL1        0.0992
     16 N          62.9608   82.3964   11.8902 N.3     1  UNL1       -0.2703
     17 C          62.4842   83.2633   13.0177 C.3     1  UNL1        0.0897
     18 C          62.3584   84.7453   12.8228 C.3     1  UNL1        0.0899
     19 N          62.7092   85.3603   11.5004 N.3     1  UNL1       -0.2665
     20 C          63.1857   84.4933   10.3729 C.3     1  UNL1        0.0899
     21 C          63.3116   83.0113   10.5679 C.3     1  UNL1        0.0897
     22 C          62.3557   80.2410   13.2086 C.3     1  UNL1        0.0188
     23 C          63.0866   80.9144   12.0851 C.3     1  UNL1        0.0722
     24 C          58.4259   90.6138    5.1216 C.3     1  UNL1        0.1739
     25 N          58.5662   92.0337    4.6587 N.pl3   1  UNL1       -0.3253
     26 H          58.0796   92.7530    5.1223 H       1  UNL1        0.1473
     27 C          59.4480   92.3576    3.4893 C.ar    1  UNL1        0.0450
     28 C          58.8382   92.7057    2.1638 C.ar    1  UNL1        0.0143
     29 C          59.7200   93.0296    0.9944 C.ar    1  UNL1        0.0013
     30 C          61.2117   93.0054    1.1505 C.ar    1  UNL1        0.0016
     31 C          61.8215   92.6573    2.4760 C.ar    1  UNL1        0.0013
     32 C          60.9397   92.3334    3.6454 C.ar    1  UNL1        0.0143
     33 C          62.0935   93.3293   -0.0189 C.ar    1  UNL1        0.0193
     34 C          61.6260   93.0382   -1.4142 C.ar    1  UNL1        0.0044
     35 C          62.5078   93.3621   -2.5835 C.ar    1  UNL1        0.0345
     36 C          63.8571   93.9771   -2.3577 C.ar    1  UNL1        0.1342
     37 N          64.3247   94.2682   -0.9625 N.ar    1  UNL1       -0.2290
     38 C          63.4428   93.9443    0.2070 C.ar    1  UNL1        0.1003
     39 N          64.7389   94.3010   -3.5271 N.am    1  UNL1       -0.2693
     40 C          64.4981   95.5479   -4.3254 C.2     1  UNL1        0.2277
     41 C          65.3799   95.8718   -5.4947 C.3     1  UNL1        0.0950
     42 O          63.3754   96.4709   -3.9543 O.2     1  UNL1       -0.2747
     43 H          65.4758   93.6952   -3.7706 H       1  UNL1        0.1563
@<TRIPOS>BOND
     1    22    23    1
     2    23    16    1
     3    16    17    1
     4    17    18    1
     5    18    19    1
     6    19    15    1
     7    15     5    1
     8     5     6   ar
     9     6     7   ar
    10     7     8   ar
    11     8     1    1
    12     1     2   am
    13     2     3    2
    14     2    24    1
    15    24    25    1
    16    25    27    1
    17    27    28   ar
    18    28    29   ar
    19    29    30   ar
    20    30    33    1
    21    33    34   ar
    22    34    35   ar
    23    35    36   ar
    24    36    39    1
    25    39    40   am
    26    40    41    1
    27    40    42    2
    28    36    37   ar
    29    37    38   ar
    30    30    31   ar
    31    31    32   ar
    32     8     9   ar
    33     9    10   ar
    34    10    11    1
    35    11    12    1
    36    11    13    1
    37    11    14    1
    38    19    20    1
    39    20    21    1
    40    21    16    1
    41    10     5   ar
    42    32    27   ar
    43    38    33   ar
    44     1     4    1
    45    25    26    1
    46    39    43    1
@<TRIPOS>MOLECULE
*****
 43 46 0 0 0
SMALL
GASTEIGER

@<TRIPOS>ATOM
      1 N          63.7026   85.2954   13.1288 N.am    1  UNL1       -0.2825
      2 C          64.8135   84.3502   13.4786 C.2     1  UNL1        0.2461
      3 O          65.9983   84.8405   14.2571 O.2     1  UNL1       -0.2729
      4 H          62.9250   84.9735   12.6179 H       1  UNL1        0.1549
      5 C          63.9239   89.6021   14.4148 C.ar    1  UNL1       -0.0022
      6 C          64.3805   88.5172   15.3447 C.ar    1  UNL1       -0.0017
      7 C          64.3068   87.0817   14.9161 C.ar    1  UNL1        0.0144
      8 C          63.7764   86.7310   13.5575 C.ar    1  UNL1        0.0503
      9 C          63.3198   87.8158   12.6276 C.ar    1  UNL1        0.0182
     10 C          63.3936   89.2514   13.0563 C.ar    1  UNL1        0.0700
     11 C          62.9370   90.3362   12.1264 C.3     1  UNL1        0.4184
     12 F          62.4804   91.4209   11.1965 F       1  UNL1       -0.1659
     13 F          64.3634   90.6267   11.7649 F       1  UNL1       -0.1659
     14 F          61.5105   90.0456   12.4879 F       1  UNL1       -0.1659
     15 C          63.9977   91.0376   14.8435 C.3     1  UNL1        0.0992
     16 N          67.9988   93.0425   15.3141 N.3     1  UNL1       -0.2703
     17 C          67.0263   93.0320   16.4560 C.3     1  UNL1        0.0897
     18 C          65.6926   92.3637   16.2992 C.3     1  UNL1        0.0899
     19 N          65.3314   91.7059   15.0004 N.3     1  UNL1       -0.2665
     20 C          66.3040   91.7164   13.8585 C.3     1  UNL1        0.0899
     21 C          67.6377   92.3847   14.0154 C.3     1  UNL1        0.0897
     22 C          69.4775   94.8899   16.3867 C.3     1  UNL1        0.0188
     23 C          69.3325   93.7108   15.4710 C.3     1  UNL1        0.0722
     24 C          64.7397   82.9147   13.0500 C.3     1  UNL1        0.1739
     25 N          64.1365   82.5580   11.7237 N.pl3   1  UNL1       -0.3253
     26 H          64.2744   81.6594   11.3458 H       1  UNL1        0.1473
     27 C          63.3230   83.5704   10.9732 C.ar    1  UNL1        0.0450
     28 C          63.6930   83.9358    9.5662 C.ar    1  UNL1        0.0143
     29 C          62.8796   84.9482    8.8156 C.ar    1  UNL1        0.0013
     30 C          61.6962   85.5953    9.4720 C.ar    1  UNL1        0.0016
     31 C          61.3263   85.2299   10.8791 C.ar    1  UNL1        0.0013
     32 C          62.1397   84.2175   11.6296 C.ar    1  UNL1        0.0143
     33 C          60.8828   86.6077    8.7215 C.ar    1  UNL1        0.0193
     34 C          60.9281   88.0525    9.1224 C.ar    1  UNL1        0.0044
     35 C          60.1147   89.0649    8.3719 C.ar    1  UNL1        0.0345
     36 C          59.2559   88.6326    7.2205 C.ar    1  UNL1        0.1342
     37 N          59.2106   87.1880    6.8196 N.ar    1  UNL1       -0.2290
     38 C          60.0241   86.1754    7.5701 C.ar    1  UNL1        0.1003
     39 N          58.4425   89.6451    6.4699 N.am    1  UNL1       -0.2693
     40 C          59.1162   90.6015    5.5310 C.2     1  UNL1        0.2277
     41 C          58.3028   91.6139    4.7805 C.3     1  UNL1        0.0950
     42 O          60.6032   90.5454    5.3426 O.2     1  UNL1       -0.2747
     43 H          57.4665   89.6819    6.5936 H       1  UNL1        0.1563
@<TRIPOS>BOND
     1    22    23    1
     2    23    16    1
     3    16    17    1
     4    17    18    1
     5    18    19    1
     6    19    15    1
     7    15     5    1
     8     5     6   ar
     9     6     7   ar
    10     7     8   ar
    11     8     1    1
    12     1     2   am
    13     2     3    2
    14     2    24    1
    15    24    25    1
    16    25    27    1
    17    27    28   ar
    18    28    29   ar
    19    29    30   ar
    20    30    33    1
    21    33    34   ar
    22    34    35   ar
    23    35    36   ar
    24    36    39    1
    25    39    40   am
    26    40    41    1
    27    40    42    2
    28    36    37   ar
    29    37    38   ar
    30    30    31   ar
    31    31    32   ar
    32     8     9   ar
    33     9    10   ar
    34    10    11    1
    35    11    12    1
    36    11    13    1
    37    11    14    1
    38    19    20    1
    39    20    21    1
    40    21    16    1
    41    10     5   ar
    42    32    27   ar
    43    38    33   ar
    44     1     4    1
    45    25    26    1
    46    39    43    1
@<TRIPOS>MOLECULE
*****
 43 46 0 0 0
SMALL
GASTEIGER

@<TRIPOS>ATOM
      1 N          60.1418   87.0270    7.8604 N.am    1  UNL1       -0.2825
      2 C          59.9412   88.5097    7.7541 C.2     1  UNL1        0.2461
      3 O          60.4917   89.4188    8.8126 O.2     1  UNL1       -0.2729
      4 H          59.7804   86.4303    7.1656 H       1  UNL1        0.1549
      5 C          62.3953   85.3060   11.3548 C.ar    1  UNL1       -0.0022
      6 C          61.3984   86.4054   11.5732 C.ar    1  UNL1       -0.0017
      7 C          60.6473   86.9790   10.4084 C.ar    1  UNL1        0.0144
      8 C          60.8930   86.4533    9.0252 C.ar    1  UNL1        0.0503
      9 C          61.8898   85.3540    8.8067 C.ar    1  UNL1        0.0182
     10 C          62.6410   84.7803    9.9716 C.ar    1  UNL1        0.0700
     11 C          63.6379   83.6810    9.7531 C.3     1  UNL1        0.4184
     12 F          64.6347   82.5817    9.5347 F       1  UNL1       -0.1659
     13 F          64.4646   84.5996    8.9030 F       1  UNL1       -0.1659
     14 F          62.8112   82.7625   10.6033 F       1  UNL1       -0.1659
     15 C          63.1464   84.7324   12.5195 C.3     1  UNL1        0.0992
     16 N          63.1052   86.8533   16.4882 N.3     1  UNL1       -0.2703
     17 C          63.8623   87.4383   15.3330 C.3     1  UNL1        0.0897
     18 C          63.8761   86.7314   14.0101 C.3     1  UNL1        0.0899
     19 N          63.1327   85.4394   13.8424 N.3     1  UNL1       -0.2665
     20 C          62.3755   84.8544   14.9976 C.3     1  UNL1        0.0899
     21 C          62.3618   85.5614   16.3205 C.3     1  UNL1        0.0897
     22 C          62.7015   86.8174   19.0544 C.3     1  UNL1        0.0188
     23 C          63.0914   87.5603   17.8110 C.3     1  UNL1        0.0722
     24 C          59.1900   89.0833    6.5894 C.3     1  UNL1        0.1739
     25 N          59.1391   90.5688    6.3879 N.pl3   1  UNL1       -0.3253
     26 H          58.6749   91.1388    7.0428 H       1  UNL1        0.1473
     27 C          59.7955   91.1860    5.1886 C.ar    1  UNL1        0.0450
     28 C          59.0262   92.1344    4.3177 C.ar    1  UNL1        0.0143
     29 C          59.6825   92.7516    3.1183 C.ar    1  UNL1        0.0013
     30 C          61.1082   92.4203    2.7900 C.ar    1  UNL1        0.0016
     31 C          61.8775   91.4718    3.6610 C.ar    1  UNL1        0.0013
     32 C          61.2211   90.8547    4.8603 C.ar    1  UNL1        0.0143
     33 C          61.7645   93.0375    1.5907 C.ar    1  UNL1        0.0193
     34 C          63.0678   93.7650    1.7403 C.ar    1  UNL1        0.0044
     35 C          63.7241   94.3822    0.5410 C.ar    1  UNL1        0.0345
     36 C          63.0773   94.2718   -0.8078 C.ar    1  UNL1        0.1342
     37 N          61.7741   93.5443   -0.9574 N.ar    1  UNL1       -0.2290
     38 C          61.1177   92.9271    0.2419 C.ar    1  UNL1        0.1003
     39 N          63.7337   94.8890   -2.0071 N.am    1  UNL1       -0.2693
     40 C          64.0542   94.0442   -3.2045 C.2     1  UNL1        0.2277
     41 C          64.7106   94.6613   -4.4038 C.3     1  UNL1        0.0950
     42 O          63.7184   92.5822   -3.2025 O.2     1  UNL1       -0.2747
     43 H          63.9541   95.8485   -2.0084 H       1  UNL1        0.1563
@<TRIPOS>BOND
     1    22    23    1
     2    23    16    1
     3    16    17    1
     4    17    18    1
     5    18    19    1
     6    19    15    1
     7    15     5    1
     8     5     6   ar
     9     6     7   ar
    10     7     8   ar
    11     8     1    1
    12     1     2   am
    13     2     3    2
    14     2    24    1
    15    24    25    1
    16    25    27    1
    17    27    28   ar
    18    28    29   ar
    19    29    30   ar
    20    30    33    1
    21    33    34   ar
    22    34    35   ar
    23    35    36   ar
    24    36    39    1
    25    39    40   am
    26    40    41    1
    27    40    42    2
    28    36    37   ar
    29    37    38   ar
    30    30    31   ar
    31    31    32   ar
    32     8     9   ar
    33     9    10   ar
    34    10    11    1
    35    11    12    1
    36    11    13    1
    37    11    14    1
    38    19    20    1
    39    20    21    1
    40    21    16    1
    41    10     5   ar
    42    32    27   ar
    43    38    33   ar
    44     1     4    1
    45    25    26    1
    46    39    43    1
@<TRIPOS>MOLECULE
*****
 43 46 0 0 0
SMALL
GASTEIGER

@<TRIPOS>ATOM
      1 N          61.6299   89.6179   12.7121 N.am    1  UNL1       -0.2825
      2 C          62.9503   90.3068   12.8905 C.2     1  UNL1        0.2461
      3 O          63.7118   90.7907   11.6922 O.2     1  UNL1       -0.2729
      4 H          61.1301   89.3003   13.4986 H       1  UNL1        0.1549
      5 C          59.9532   89.0023    8.5816 C.ar    1  UNL1       -0.0022
      6 C          59.7511   90.3113    9.2858 C.ar    1  UNL1       -0.0017
      7 C          60.3100   90.5164   10.6625 C.ar    1  UNL1        0.0144
      8 C          61.0710   89.4126   11.3352 C.ar    1  UNL1        0.0503
      9 C          61.2731   88.1037   10.6312 C.ar    1  UNL1        0.0182
     10 C          60.7142   87.8985    9.2543 C.ar    1  UNL1        0.0700
     11 C          60.9163   86.5896    8.5502 C.3     1  UNL1        0.4184
     12 F          61.1184   85.2806    7.8462 F       1  UNL1       -0.1659
     13 F          59.4327   86.3689    8.5347 F       1  UNL1       -0.1659
     14 F          62.3998   86.8102    8.5658 F       1  UNL1       -0.1659
     15 C          59.3943   88.7972    7.2049 C.3     1  UNL1        0.0992
     16 N          59.6197   92.1104    4.1682 N.3     1  UNL1       -0.2703
     17 C          60.8631   91.3718    4.5660 C.3     1  UNL1        0.0897
     18 C          60.7880   90.2674    5.5783 C.3     1  UNL1        0.0899
     19 N          59.4694   89.9016    6.1927 N.3     1  UNL1       -0.2665
     20 C          58.2260   90.6402    5.7949 C.3     1  UNL1        0.0899
     21 C          58.3012   91.7447    4.7826 C.3     1  UNL1        0.0897
     22 C          60.8554   93.2860    2.2084 C.3     1  UNL1        0.0188
     23 C          59.6949   93.2149    3.1560 C.3     1  UNL1        0.0722
     24 C          63.5091   90.5120   14.2673 C.3     1  UNL1        0.1739
     25 N          64.3189   89.4294   14.9171 N.pl3   1  UNL1       -0.3253
     26 H          64.9975   89.6600   15.5920 H       1  UNL1        0.1473
     27 C          64.0948   87.9954   14.5384 C.ar    1  UNL1        0.0450
     28 C          64.2414   86.9158   15.5694 C.ar    1  UNL1        0.0143
     29 C          64.0173   85.4817   15.1908 C.ar    1  UNL1        0.0013
     30 C          63.6467   85.1273   13.7812 C.ar    1  UNL1        0.0016
     31 C          63.5001   86.2070   12.7502 C.ar    1  UNL1        0.0013
     32 C          63.7242   87.6410   13.1288 C.ar    1  UNL1        0.0143
     33 C          63.4226   83.6933   13.4025 C.ar    1  UNL1        0.0193
     34 C          63.0985   83.3343   11.9826 C.ar    1  UNL1        0.0044
     35 C          62.8744   81.9003   11.6039 C.ar    1  UNL1        0.0345
     36 C          62.9744   80.8253   12.6452 C.ar    1  UNL1        0.1342
     37 N          63.2985   81.1842   14.0651 N.ar    1  UNL1       -0.2290
     38 C          63.5226   82.6182   14.4438 C.ar    1  UNL1        0.1003
     39 N          62.7503   79.3913   12.2666 N.am    1  UNL1       -0.2693
     40 C          62.7822   78.9828   10.8235 C.2     1  UNL1        0.2277
     41 C          62.5581   77.5488   10.4449 C.3     1  UNL1        0.0950
     42 O          63.0381   80.0083    9.7592 O.2     1  UNL1       -0.2747
     43 H          62.5824   78.7182   12.9651 H       1  UNL1        0.1563
@<TRIPOS>BOND
     1    22    23    1
     2    23    16    1
     3    16    17    1
     4    17    18    1
     5    18    19    1
     6    19    15    1
     7    15     5    1
     8     5     6   ar
     9     6     7   ar
    10     7     8   ar
    11     8     1    1
    12     1     2   am
    13     2     3    2
    14     2    24    1
    15    24    25    1
    16    25    27    1
    17    27    28   ar
    18    28    29   ar
    19    29    30   ar
    20    30    33    1
    21    33    34   ar
    22    34    35   ar
    23    35    36   ar
    24    36    39    1
    25    39    40   am
    26    40    41    1
    27    40    42    2
    28    36    37   ar
    29    37    38   ar
    30    30    31   ar
    31    31    32   ar
    32     8     9   ar
    33     9    10   ar
    34    10    11    1
    35    11    12    1
    36    11    13    1
    37    11    14    1
    38    19    20    1
    39    20    21    1
    40    21    16    1
    41    10     5   ar
    42    32    27   ar
    43    38    33   ar
    44     1     4    1
    45    25    26    1
    46    39    43    1
@<TRIPOS>MOLECULE
*****
 43 46 0 0 0
SMALL
GASTEIGER

@<TRIPOS>ATOM
      1 N          63.6781   87.5784   13.7503 N.am    1  UNL1       -0.2825
      2 C          64.5313   86.5165   14.3782 C.2     1  UNL1        0.2461
      3 O          65.8905   86.8633   14.9095 O.2     1  UNL1       -0.2729
      4 H          62.7860   87.3507   13.4017 H       1  UNL1        0.1549
      5 C          65.1958   91.8048   13.4602 C.ar    1  UNL1       -0.0022
      6 C          64.2564   91.2721   12.4192 C.ar    1  UNL1       -0.0017
      7 C          63.7505   89.8633   12.5159 C.ar    1  UNL1        0.0144
      8 C          64.1840   88.9872   13.6536 C.ar    1  UNL1        0.0503
      9 C          65.1234   89.5198   14.6947 C.ar    1  UNL1        0.0182
     10 C          65.6293   90.9287   14.5980 C.ar    1  UNL1        0.0700
     11 C          66.5687   91.4613   15.6390 C.3     1  UNL1        0.4184
     12 F          67.5081   91.9939   16.6801 F       1  UNL1       -0.1659
     13 F          67.7323   90.9030   14.8747 F       1  UNL1       -0.1659
     14 F          65.4051   92.0196   16.4034 F       1  UNL1       -0.1659
     15 C          65.7017   93.2136   13.3635 C.3     1  UNL1        0.0992
     16 N          67.0436   94.8549    9.3942 N.3     1  UNL1       -0.2703
     17 C          66.4923   95.7782   10.4399 C.3     1  UNL1        0.0897
     18 C          66.0450   95.2311   11.7630 C.3     1  UNL1        0.0899
     19 N          66.1490   93.7607   12.0404 N.3     1  UNL1       -0.2665
     20 C          66.7004   92.8374   10.9948 C.3     1  UNL1        0.0899
     21 C          67.1477   93.3845    9.6717 C.3     1  UNL1        0.0897
     22 C          67.1672   96.8180    7.6969 C.3     1  UNL1        0.0188
     23 C          67.4909   95.4020    8.0711 C.3     1  UNL1        0.0722
     24 C          64.0253   85.1077   14.4749 C.3     1  UNL1        0.1739
     25 N          63.4892   84.4180   13.2554 N.pl3   1  UNL1       -0.3253
     26 H          63.6288   83.4509   13.1355 H       1  UNL1        0.1473
     27 C          62.7403   85.2019   12.2188 C.ar    1  UNL1        0.0450
     28 C          61.6738   86.1704   12.6365 C.ar    1  UNL1        0.0143
     29 C          60.9248   86.9543   11.5998 C.ar    1  UNL1        0.0013
     30 C          61.2424   86.7697   10.1455 C.ar    1  UNL1        0.0016
     31 C          62.3090   85.8011    9.7278 C.ar    1  UNL1        0.0013
     32 C          63.0579   85.0172   10.7645 C.ar    1  UNL1        0.0143
     33 C          60.4935   87.5535    9.1088 C.ar    1  UNL1        0.0193
     34 C          60.7043   89.0340    8.9907 C.ar    1  UNL1        0.0044
     35 C          59.9554   89.8178    7.9541 C.ar    1  UNL1        0.0345
     36 C          58.9957   89.1213    7.0355 C.ar    1  UNL1        0.1342
     37 N          58.7850   87.6409    7.1535 N.ar    1  UNL1       -0.2290
     38 C          59.5339   86.8570    8.1902 C.ar    1  UNL1        0.1003
     39 N          58.2469   89.9051    5.9988 N.am    1  UNL1       -0.2693
     40 C          58.9656   90.9239    5.1647 C.2     1  UNL1        0.2277
     41 C          58.2167   91.7077    4.1280 C.3     1  UNL1        0.0950
     42 O          60.4332   91.1587    5.3672 O.2     1  UNL1       -0.2747
     43 H          57.2836   89.7510    5.8659 H       1  UNL1        0.1563
@<TRIPOS>BOND
     1    22    23    1
     2    23    16    1
     3    16    17    1
     4    17    18    1
     5    18    19    1
     6    19    15    1
     7    15     5    1
     8     5     6   ar
     9     6     7   ar
    10     7     8   ar
    11     8     1    1
    12     1     2   am
    13     2     3    2
    14     2    24    1
    15    24    25    1
    16    25    27    1
    17    27    28   ar
    18    28    29   ar
    19    29    30   ar
    20    30    33    1
    21    33    34   ar
    22    34    35   ar
    23    35    36   ar
    24    36    39    1
    25    39    40   am
    26    40    41    1
    27    40    42    2
    28    36    37   ar
    29    37    38   ar
    30    30    31   ar
    31    31    32   ar
    32     8     9   ar
    33     9    10   ar
    34    10    11    1
    35    11    12    1
    36    11    13    1
    37    11    14    1
    38    19    20    1
    39    20    21    1
    40    21    16    1
    41    10     5   ar
    42    32    27   ar
    43    38    33   ar
    44     1     4    1
    45    25    26    1
    46    39    43    1
