@<TRIPOS>MOLECULE
*****
 30 32 0 0 0
SMALL
GASTEIGER

@<TRIPOS>ATOM
      1 C          63.6449   88.2700   13.2847 C.ar    1  UNL1        0.1329
      2 N          63.3309   86.8175   13.0808 N.ar    1  UNL1       -0.1993
      3 C          62.7036   86.3587   11.7978 C.ar    1  UNL1        0.2148
      4 N          62.3896   84.9061   11.5939 N.pl3   1  UNL1       -0.3274
      5 N          62.3905   87.3524   10.7187 N.ar    1  UNL1       -0.2139
      6 C          62.7045   88.8050   10.9226 C.ar    1  UNL1        0.0870
      7 C          62.3913   89.7986    9.8435 C.ar    1  UNL1        0.0193
      8 C          62.7053   91.2511   10.0474 C.ar    1  UNL1        0.0017
      9 C          63.3326   91.7099   11.3304 C.ar    1  UNL1        0.0047
     10 C          63.6457   90.7163   12.4095 C.ar    1  UNL1        0.0577
     11 C          63.3317   89.2638   12.2056 C.ar    1  UNL1        0.0536
     12 H          62.5952   84.2539   12.3021 H       1  UNL1        0.1452
     13 H          61.9780   84.6050   10.7518 H       1  UNL1        0.1452
     14 C          64.2729   91.1751   13.6925 C.2     1  UNL1        0.2494
     15 O          63.4544   91.2353   14.9480 O.2     1  UNL1       -0.2699
     16 N          65.7187   91.5736   13.7200 N.am    1  UNL1       -0.2702
     17 C          66.3459   92.0324   15.0030 C.3     1  UNL1        0.1155
     18 C          66.5374   91.5134   12.4645 C.3     1  UNL1        0.1205
     19 C          66.6833   92.7341   11.6050 C.ar    1  UNL1       -0.0023
     20 C          66.1417   94.0516   12.0752 C.ar    1  UNL1       -0.0026
     21 C          66.2876   95.2722   11.2158 C.ar    1  UNL1       -0.0003
     22 C          66.9750   95.1754    9.8861 C.ar    1  UNL1       -0.0000
     23 C          67.5166   93.8580    9.4159 C.ar    1  UNL1       -0.0003
     24 C          67.3707   92.6373   10.2753 C.ar    1  UNL1       -0.0026
     25 N          64.2721   88.7288   14.5677 N.pl3   1  UNL1       -0.3180
     26 H          64.7683   89.5786   14.5967 H       1  UNL1        0.1482
     27 C          64.1434   87.8928   15.8064 C.3     1  UNL1        0.0882
     28 C          63.1197   88.2438   16.8451 C.3     1  UNL1        0.0212
     29 C          62.3347   85.8152   17.3307 C.3     1  UNL1        0.0001
     30 C          62.6457   87.2009   17.8135 C.3     1  UNL1        0.0017
@<TRIPOS>BOND
     1    29    30    1
     2    30    28    1
     3    28    27    1
     4    27    25    1
     5    25     1    1
     6     1     2   ar
     7     2     3   ar
     8     3     4    1
     9     3     5   ar
    10     5     6   ar
    11     6     7   ar
    12     7     8   ar
    13     8     9   ar
    14     9    10   ar
    15    10    14    1
    16    14    15    2
    17    14    16   am
    18    16    17    1
    19    16    18    1
    20    18    19    1
    21    19    20   ar
    22    20    21   ar
    23    21    22   ar
    24    22    23   ar
    25    23    24   ar
    26    10    11   ar
    27    11     1   ar
    28    11     6   ar
    29    24    19   ar
    30    25    26    1
    31     4    12    1
    32     4    13    1
@<TRIPOS>MOLECULE
*****
 30 32 0 0 0
SMALL
GASTEIGER

@<TRIPOS>ATOM
      1 C          65.3850   91.9925   13.2631 C.ar    1  UNL1        0.1329
      2 N          66.3966   92.9606   12.7252 N.ar    1  UNL1       -0.1993
      3 C          66.3288   93.3970   11.2917 C.ar    1  UNL1        0.2148
      4 N          67.3405   94.3652   10.7538 N.pl3   1  UNL1       -0.3274
      5 N          65.2494   92.8653   10.3961 N.ar    1  UNL1       -0.2139
      6 C          64.2378   91.8972   10.9339 C.ar    1  UNL1        0.0870
      7 C          63.1584   91.3655   10.0383 C.ar    1  UNL1        0.0193
      8 C          62.1468   90.3974   10.5762 C.ar    1  UNL1        0.0017
      9 C          62.2145   89.9610   12.0097 C.ar    1  UNL1        0.0047
     10 C          63.2939   90.4927   12.9053 C.ar    1  UNL1        0.0577
     11 C          64.3055   91.4608   12.3674 C.ar    1  UNL1        0.0536
     12 H          68.0490   94.7142   11.3416 H       1  UNL1        0.1452
     13 H          67.2961   94.6516    9.8129 H       1  UNL1        0.1452
     14 C          63.3617   90.0563   14.3388 C.2     1  UNL1        0.2494
     15 O          63.0162   91.0215   15.4338 O.2     1  UNL1       -0.2699
     16 N          63.7749   88.6547   14.6774 N.am    1  UNL1       -0.2702
     17 C          63.8427   88.2182   16.1109 C.3     1  UNL1        0.1155
     18 C          64.1204   87.6894   13.5824 C.3     1  UNL1        0.1205
     19 C          63.9005   86.2191   13.7817 C.ar    1  UNL1       -0.0023
     20 C          63.0653   85.4463   12.8043 C.ar    1  UNL1       -0.0026
     21 C          62.8454   83.9760   13.0037 C.ar    1  UNL1       -0.0003
     22 C          63.4607   83.2783   14.1804 C.ar    1  UNL1       -0.0000
     23 C          64.2960   84.0510   15.1577 C.ar    1  UNL1       -0.0003
     24 C          64.5159   85.5214   14.9584 C.ar    1  UNL1       -0.0026
     25 N          65.4528   91.5561   14.6966 N.pl3   1  UNL1       -0.3180
     26 H          65.0156   90.7200   14.9778 H       1  UNL1        0.1482
     27 C          66.1866   92.3936   15.7016 C.3     1  UNL1        0.0882
     28 C          67.6198   92.0922   16.0257 C.3     1  UNL1        0.0212
     29 C          69.1024   94.2249   15.9671 C.3     1  UNL1        0.0001
     30 C          68.7169   92.8946   15.3912 C.3     1  UNL1        0.0017
@<TRIPOS>BOND
     1    29    30    1
     2    30    28    1
     3    28    27    1
     4    27    25    1
     5    25     1    1
     6     1     2   ar
     7     2     3   ar
     8     3     4    1
     9     3     5   ar
    10     5     6   ar
    11     6     7   ar
    12     7     8   ar
    13     8     9   ar
    14     9    10   ar
    15    10    14    1
    16    14    15    2
    17    14    16   am
    18    16    17    1
    19    16    18    1
    20    18    19    1
    21    19    20   ar
    22    20    21   ar
    23    21    22   ar
    24    22    23   ar
    25    23    24   ar
    26    10    11   ar
    27    11     1   ar
    28    11     6   ar
    29    24    19   ar
    30    25    26    1
    31     4    12    1
    32     4    13    1
@<TRIPOS>MOLECULE
*****
 30 32 0 0 0
SMALL
GASTEIGER

@<TRIPOS>ATOM
      1 C          60.6274   86.8027    8.4319 C.ar    1  UNL1        0.1329
      2 N          60.6607   86.1152    7.0992 N.ar    1  UNL1       -0.1993
      3 C          61.5570   84.9310    6.8883 C.ar    1  UNL1        0.2148
      4 N          61.5903   84.2435    5.5555 N.pl3   1  UNL1       -0.3274
      5 N          62.4200   84.4344    8.0102 N.ar    1  UNL1       -0.2139
      6 C          62.3867   85.1219    9.3430 C.ar    1  UNL1        0.0870
      7 C          63.2497   84.6253   10.4648 C.ar    1  UNL1        0.0193
      8 C          63.2164   85.3128   11.7975 C.ar    1  UNL1        0.0017
      9 C          62.3202   86.4969   12.0084 C.ar    1  UNL1        0.0047
     10 C          61.4572   86.9935   10.8866 C.ar    1  UNL1        0.0577
     11 C          61.4905   86.3060    9.5539 C.ar    1  UNL1        0.0536
     12 H          61.0239   84.5695    4.8192 H       1  UNL1        0.1452
     13 H          62.1785   83.4663    5.4171 H       1  UNL1        0.1452
     14 C          60.5609   88.1777   11.0975 C.2     1  UNL1        0.2494
     15 O          59.1142   87.9724   11.4363 O.2     1  UNL1       -0.2699
     16 N          61.1113   89.5671   10.9695 N.am    1  UNL1       -0.2702
     17 C          60.2150   90.7513   11.1804 C.3     1  UNL1        0.1155
     18 C          62.5581   89.7725   10.6306 C.3     1  UNL1        0.1205
     19 C          63.4848   90.3849   11.6386 C.ar    1  UNL1       -0.0023
     20 C          64.2510   91.6280   11.2950 C.ar    1  UNL1       -0.0026
     21 C          65.1778   92.2404   12.3030 C.ar    1  UNL1       -0.0003
     22 C          65.3384   91.6098   13.6545 C.ar    1  UNL1       -0.0000
     23 C          64.5723   90.3669   13.9981 C.ar    1  UNL1       -0.0003
     24 C          63.6455   89.7544   12.9901 C.ar    1  UNL1       -0.0026
     25 N          59.7312   87.9868    8.6428 N.pl3   1  UNL1       -0.3180
     26 H          59.0492   87.9678    9.3527 H       1  UNL1        0.1482
     27 C          59.8739   89.1999    7.7723 C.3     1  UNL1        0.0882
     28 C          59.1062   89.2954    6.4871 C.3     1  UNL1        0.0212
     29 C          57.9337   91.2391    5.2232 C.3     1  UNL1        0.0001
     30 C          59.1890   90.5405    5.6547 C.3     1  UNL1        0.0017
@<TRIPOS>BOND
     1    29    30    1
     2    30    28    1
     3    28    27    1
     4    27    25    1
     5    25     1    1
     6     1     2   ar
     7     2     3   ar
     8     3     4    1
     9     3     5   ar
    10     5     6   ar
    11     6     7   ar
    12     7     8   ar
    13     8     9   ar
    14     9    10   ar
    15    10    14    1
    16    14    15    2
    17    14    16   am
    18    16    17    1
    19    16    18    1
    20    18    19    1
    21    19    20   ar
    22    20    21   ar
    23    21    22   ar
    24    22    23   ar
    25    23    24   ar
    26    10    11   ar
    27    11     1   ar
    28    11     6   ar
    29    24    19   ar
    30    25    26    1
    31     4    12    1
    32     4    13    1
@<TRIPOS>MOLECULE
*****
 30 32 0 0 0
SMALL
GASTEIGER

@<TRIPOS>ATOM
      1 C          64.6793   91.9026   12.7319 C.ar    1  UNL1        0.1329
      2 N          64.8717   92.3398   11.3100 N.ar    1  UNL1       -0.1993
      3 C          66.2213   92.7979   10.8423 C.ar    1  UNL1        0.2148
      4 N          66.4137   93.2351    9.4203 N.pl3   1  UNL1       -0.3274
      5 N          67.3785   92.8188   11.7964 N.ar    1  UNL1       -0.2139
      6 C          67.1861   92.3816   13.2184 C.ar    1  UNL1        0.0870
      7 C          68.3433   92.4026   14.1725 C.ar    1  UNL1        0.0193
      8 C          68.1509   91.9654   15.5944 C.ar    1  UNL1        0.0017
      9 C          66.8013   91.5073   16.0622 C.ar    1  UNL1        0.0047
     10 C          65.6441   91.4864   15.1080 C.ar    1  UNL1        0.0577
     11 C          65.8365   91.9235   13.6861 C.ar    1  UNL1        0.0536
     12 H          65.6541   93.2213    8.7940 H       1  UNL1        0.1452
     13 H          67.2994   93.5358    9.1133 H       1  UNL1        0.1452
     14 C          64.2946   91.0282   15.5757 C.2     1  UNL1        0.2494
     15 O          63.3705   91.9922   16.2590 O.2     1  UNL1       -0.2699
     16 N          63.8690   89.6061   15.3602 N.am    1  UNL1       -0.2702
     17 C          62.5194   89.1480   15.8280 C.3     1  UNL1        0.1155
     18 C          64.7931   88.6421   14.6770 C.3     1  UNL1        0.1205
     19 C          64.3525   87.2303   14.4266 C.ar    1  UNL1       -0.0023
     20 C          64.6027   86.1721   15.4599 C.ar    1  UNL1       -0.0026
     21 C          64.1621   84.7603   15.2096 C.ar    1  UNL1       -0.0003
     22 C          63.4714   84.4066   13.9259 C.ar    1  UNL1       -0.0000
     23 C          63.2212   85.4647   12.8926 C.ar    1  UNL1       -0.0003
     24 C          63.6618   86.8766   13.1429 C.ar    1  UNL1       -0.0026
     25 N          63.3297   91.4445   13.1996 N.pl3   1  UNL1       -0.3180
     26 H          63.0597   91.5843   14.1360 H       1  UNL1        0.1482
     27 C          62.3916   90.7734   12.2407 C.3     1  UNL1        0.0882
     28 C          62.7968   89.4975   11.5641 C.3     1  UNL1        0.0212
     29 C          62.0649   87.7691    9.7676 C.3     1  UNL1        0.0001
     30 C          62.3009   89.1913   10.1818 C.3     1  UNL1        0.0017
@<TRIPOS>BOND
     1    29    30    1
     2    30    28    1
     3    28    27    1
     4    27    25    1
     5    25     1    1
     6     1     2   ar
     7     2     3   ar
     8     3     4    1
     9     3     5   ar
    10     5     6   ar
    11     6     7   ar
    12     7     8   ar
    13     8     9   ar
    14     9    10   ar
    15    10    14    1
    16    14    15    2
    17    14    16   am
    18    16    17    1
    19    16    18    1
    20    18    19    1
    21    19    20   ar
    22    20    21   ar
    23    21    22   ar
    24    22    23   ar
    25    23    24   ar
    26    10    11   ar
    27    11     1   ar
    28    11     6   ar
    29    24    19   ar
    30    25    26    1
    31     4    12    1
    32     4    13    1
@<TRIPOS>MOLECULE
*****
 30 32 0 0 0
SMALL
GASTEIGER

@<TRIPOS>ATOM
      1 C          63.2245   87.7406   12.5871 C.ar    1  UNL1        0.1329
      2 N          63.2079   86.2472   12.4480 N.ar    1  UNL1       -0.1993
      3 C          62.3150   85.5985   11.4321 C.ar    1  UNL1        0.2148
      4 N          62.2984   84.1050   11.2930 N.pl3   1  UNL1       -0.3274
      5 N          61.4388   86.4432   10.5553 N.ar    1  UNL1       -0.2139
      6 C          61.4554   87.9367   10.6944 C.ar    1  UNL1        0.0870
      7 C          60.5793   88.7813    9.8177 C.ar    1  UNL1        0.0193
      8 C          60.5959   90.2747    9.9568 C.ar    1  UNL1        0.0017
      9 C          61.4887   90.9235   10.9726 C.ar    1  UNL1        0.0047
     10 C          62.3649   90.0788   11.8494 C.ar    1  UNL1        0.0577
     11 C          62.3483   88.5854   11.7103 C.ar    1  UNL1        0.0536
     12 H          62.8735   83.5506   11.8685 H       1  UNL1        0.1452
     13 H          61.7125   83.6792   10.6263 H       1  UNL1        0.1452
     14 C          63.2577   90.7276   12.8653 C.2     1  UNL1        0.2494
     15 O          62.9658   90.5723   14.3284 O.2     1  UNL1       -0.2699
     16 N          64.4424   91.5316   12.4181 N.am    1  UNL1       -0.2702
     17 C          65.3352   92.1803   13.4340 C.3     1  UNL1        0.1155
     18 C          64.7343   91.6868   10.9550 C.3     1  UNL1        0.1205
     19 C          65.7466   92.6936   10.4949 C.ar    1  UNL1       -0.0023
     20 C          67.0998   92.2395   10.0333 C.ar    1  UNL1       -0.0026
     21 C          68.1121   93.2462    9.5733 C.ar    1  UNL1       -0.0003
     22 C          67.7713   94.7070    9.5747 C.ar    1  UNL1       -0.0000
     23 C          66.4183   95.1611   10.0362 C.ar    1  UNL1       -0.0003
     24 C          65.4059   94.1544   10.4963 C.ar    1  UNL1       -0.0026
     25 N          64.1173   88.3894   13.6030 N.pl3   1  UNL1       -0.3180
     26 H          64.5883   89.2252   13.3821 H       1  UNL1        0.1482
     27 C          64.2924   87.7647   14.9554 C.3     1  UNL1        0.0882
     28 C          64.7509   86.3411   15.0703 C.3     1  UNL1        0.0212
     29 C          63.4135   84.1227   15.2701 C.3     1  UNL1        0.0001
     30 C          63.9688   85.3659   15.8994 C.3     1  UNL1        0.0017
@<TRIPOS>BOND
     1    29    30    1
     2    30    28    1
     3    28    27    1
     4    27    25    1
     5    25     1    1
     6     1     2   ar
     7     2     3   ar
     8     3     4    1
     9     3     5   ar
    10     5     6   ar
    11     6     7   ar
    12     7     8   ar
    13     8     9   ar
    14     9    10   ar
    15    10    14    1
    16    14    15    2
    17    14    16   am
    18    16    17    1
    19    16    18    1
    20    18    19    1
    21    19    20   ar
    22    20    21   ar
    23    21    22   ar
    24    22    23   ar
    25    23    24   ar
    26    10    11   ar
    27    11     1   ar
    28    11     6   ar
    29    24    19   ar
    30    25    26    1
    31     4    12    1
    32     4    13    1
@<TRIPOS>MOLECULE
*****
 30 32 0 0 0
SMALL
GASTEIGER

@<TRIPOS>ATOM
      1 C          62.1833   83.2511   14.1281 C.ar    1  UNL1        0.1329
      2 N          61.2223   82.2399   14.6793 N.ar    1  UNL1       -0.1993
      3 C          60.9904   80.9500   13.9496 C.ar    1  UNL1        0.2148
      4 N          60.0293   79.9388   14.5009 N.pl3   1  UNL1       -0.3274
      5 N          61.7194   80.6714   12.6687 N.ar    1  UNL1       -0.2139
      6 C          62.6805   81.6827   12.1174 C.ar    1  UNL1        0.0870
      7 C          63.4096   81.4041   10.8365 C.ar    1  UNL1        0.0193
      8 C          64.3705   82.4153   10.2853 C.ar    1  UNL1        0.0017
      9 C          64.6025   83.7052   11.0150 C.ar    1  UNL1        0.0047
     10 C          63.8734   83.9838   12.2960 C.ar    1  UNL1        0.0577
     11 C          62.9124   82.9726   12.8471 C.ar    1  UNL1        0.0536
     12 H          59.5508   80.1217   15.3416 H       1  UNL1        0.1452
     13 H          59.8771   79.0922   14.0219 H       1  UNL1        0.1452
     14 C          64.1053   85.2737   13.0257 C.2     1  UNL1        0.2494
     15 O          65.0562   85.3191   14.1849 O.2     1  UNL1       -0.2699
     16 N          63.3863   86.5181   12.5962 N.am    1  UNL1       -0.2702
     17 C          63.6182   87.8079   13.3259 C.3     1  UNL1        0.1155
     18 C          62.4354   86.4727   11.4370 C.3     1  UNL1        0.1205
     19 C          61.6974   87.7113   11.0234 C.ar    1  UNL1       -0.0023
     20 C          60.2675   87.9046   11.4337 C.ar    1  UNL1       -0.0026
     21 C          59.5295   89.1433   11.0201 C.ar    1  UNL1       -0.0003
     22 C          60.2213   90.1886   10.1962 C.ar    1  UNL1       -0.0000
     23 C          61.6510   89.9953    9.7859 C.ar    1  UNL1       -0.0003
     24 C          62.3891   88.7566   10.1995 C.ar    1  UNL1       -0.0026
     25 N          62.4152   84.5410   14.8579 N.pl3   1  UNL1       -0.3180
     26 H          62.4750   85.3862   14.3566 H       1  UNL1        0.1482
     27 C          62.5559   84.5430   16.3512 C.3     1  UNL1        0.0882
     28 C          63.2927   85.6572   17.0336 C.3     1  UNL1        0.0212
     29 C          63.0356   88.2423   17.0712 C.3     1  UNL1        0.0001
     30 C          62.5522   86.8827   17.4808 C.3     1  UNL1        0.0017
@<TRIPOS>BOND
     1    29    30    1
     2    30    28    1
     3    28    27    1
     4    27    25    1
     5    25     1    1
     6     1     2   ar
     7     2     3   ar
     8     3     4    1
     9     3     5   ar
    10     5     6   ar
    11     6     7   ar
    12     7     8   ar
    13     8     9   ar
    14     9    10   ar
    15    10    14    1
    16    14    15    2
    17    14    16   am
    18    16    17    1
    19    16    18    1
    20    18    19    1
    21    19    20   ar
    22    20    21   ar
    23    21    22   ar
    24    22    23   ar
    25    23    24   ar
    26    10    11   ar
    27    11     1   ar
    28    11     6   ar
    29    24    19   ar
    30    25    26    1
    31     4    12    1
    32     4    13    1
@<TRIPOS>MOLECULE
*****
 30 32 0 0 0
SMALL
GASTEIGER

@<TRIPOS>ATOM
      1 C          62.4408   83.4583   13.7323 C.ar    1  UNL1        0.1329
      2 N          62.2277   82.2255   14.5597 N.ar    1  UNL1       -0.1993
      3 C          62.5457   80.8751   13.9893 C.ar    1  UNL1        0.2148
      4 N          62.3327   79.6423   14.8168 N.pl3   1  UNL1       -0.3274
      5 N          63.0768   80.7576   12.5914 N.ar    1  UNL1       -0.2139
      6 C          63.2899   81.9904   11.7639 C.ar    1  UNL1        0.0870
      7 C          63.8210   81.8729   10.3660 C.ar    1  UNL1        0.0193
      8 C          64.0340   83.1057    9.5386 C.ar    1  UNL1        0.0017
      9 C          63.7160   84.4560   10.1090 C.ar    1  UNL1        0.0047
     10 C          63.1849   84.5736   11.5068 C.ar    1  UNL1        0.0577
     11 C          62.9719   83.3408   12.3343 C.ar    1  UNL1        0.0536
     12 H          61.9841   79.7194   15.7343 H       1  UNL1        0.1452
     13 H          62.5414   78.7560   14.4425 H       1  UNL1        0.1452
     14 C          62.8669   85.9240   12.0773 C.2     1  UNL1        0.2494
     15 O          63.6769   86.4663   13.2173 O.2     1  UNL1       -0.2699
     16 N          61.7389   86.7321   11.5076 N.am    1  UNL1       -0.2702
     17 C          61.4209   88.0824   12.0780 C.3     1  UNL1        0.1155
     18 C          60.9289   86.1898   10.3675 C.3     1  UNL1        0.1205
     19 C          60.3954   87.1190    9.3178 C.ar    1  UNL1       -0.0023
     20 C          60.7378   88.5788    9.3642 C.ar    1  UNL1       -0.0026
     21 C          60.2043   89.5080    8.3146 C.ar    1  UNL1       -0.0003
     22 C          59.3283   88.9776    7.2185 C.ar    1  UNL1       -0.0000
     23 C          58.9859   87.5180    7.1720 C.ar    1  UNL1       -0.0003
     24 C          59.5194   86.5887    8.2217 C.ar    1  UNL1       -0.0026
     25 N          62.1228   84.8087   14.3027 N.pl3   1  UNL1       -0.3180
     26 H          62.0116   85.5822   13.7039 H       1  UNL1        0.1482
     27 C          61.9741   84.9805   15.7853 C.3     1  UNL1        0.0882
     28 C          63.0883   85.5874   16.5855 C.3     1  UNL1        0.0212
     29 C          63.0028   88.1308   17.1090 C.3     1  UNL1        0.0001
     30 C          62.8017   86.7083   17.5403 C.3     1  UNL1        0.0017
@<TRIPOS>BOND
     1    29    30    1
     2    30    28    1
     3    28    27    1
     4    27    25    1
     5    25     1    1
     6     1     2   ar
     7     2     3   ar
     8     3     4    1
     9     3     5   ar
    10     5     6   ar
    11     6     7   ar
    12     7     8   ar
    13     8     9   ar
    14     9    10   ar
    15    10    14    1
    16    14    15    2
    17    14    16   am
    18    16    17    1
    19    16    18    1
    20    18    19    1
    21    19    20   ar
    22    20    21   ar
    23    21    22   ar
    24    22    23   ar
    25    23    24   ar
    26    10    11   ar
    27    11     1   ar
    28    11     6   ar
    29    24    19   ar
    30    25    26    1
    31     4    12    1
    32     4    13    1
@<TRIPOS>MOLECULE
*****
 30 32 0 0 0
SMALL
GASTEIGER

@<TRIPOS>ATOM
      1 C          63.8669   88.1218   13.4392 C.ar    1  UNL1        0.1329
      2 N          64.6276   89.1307   14.2476 N.ar    1  UNL1       -0.1993
      3 C          64.5677   90.5841   13.8817 C.ar    1  UNL1        0.2148
      4 N          65.3285   91.5930   14.6902 N.pl3   1  UNL1       -0.3274
      5 N          63.7472   91.0288   12.7075 N.ar    1  UNL1       -0.2139
      6 C          62.9864   90.0199   11.8990 C.ar    1  UNL1        0.0870
      7 C          62.1658   90.4646   10.7248 C.ar    1  UNL1        0.0193
      8 C          61.4051   89.4558    9.9164 C.ar    1  UNL1        0.0017
      9 C          61.4650   88.0023   10.2822 C.ar    1  UNL1        0.0047
     10 C          62.2855   87.5576   11.4565 C.ar    1  UNL1        0.0577
     11 C          63.0462   88.5665   12.2649 C.ar    1  UNL1        0.0536
     12 H          65.8671   91.3011   15.4609 H       1  UNL1        0.1452
     13 H          65.2892   92.5469   14.4501 H       1  UNL1        0.1452
     14 C          62.3454   86.1042   11.8223 C.2     1  UNL1        0.2494
     15 O          61.8776   85.6510   13.1735 O.2     1  UNL1       -0.2699
     16 N          62.8730   85.1039   10.8370 N.am    1  UNL1       -0.2702
     17 C          62.9328   83.6504   11.2028 C.3     1  UNL1        0.1155
     18 C          63.3408   85.5570    9.4857 C.3     1  UNL1        0.1205
     19 C          62.5094   85.2727    8.2700 C.ar    1  UNL1       -0.0023
     20 C          61.0730   85.7029    8.2263 C.ar    1  UNL1       -0.0026
     21 C          60.2417   85.4186    7.0106 C.ar    1  UNL1       -0.0003
     22 C          60.8466   84.7041    5.8386 C.ar    1  UNL1       -0.0000
     23 C          62.2829   84.2740    5.8822 C.ar    1  UNL1       -0.0003
     24 C          63.1144   84.5583    7.0980 C.ar    1  UNL1       -0.0026
     25 N          63.9267   86.6684   13.8051 N.pl3   1  UNL1       -0.3180
     26 H          63.5401   85.9927   13.2023 H       1  UNL1        0.1482
     27 C          64.5756   86.2443   15.0892 C.3     1  UNL1        0.0882
     28 C          63.7664   85.5522   16.1456 C.3     1  UNL1        0.0212
     29 C          63.0535   87.8247   17.1836 C.3     1  UNL1        0.0001
     30 C          62.8513   86.3464   17.0299 C.3     1  UNL1        0.0017
@<TRIPOS>BOND
     1    29    30    1
     2    30    28    1
     3    28    27    1
     4    27    25    1
     5    25     1    1
     6     1     2   ar
     7     2     3   ar
     8     3     4    1
     9     3     5   ar
    10     5     6   ar
    11     6     7   ar
    12     7     8   ar
    13     8     9   ar
    14     9    10   ar
    15    10    14    1
    16    14    15    2
    17    14    16   am
    18    16    17    1
    19    16    18    1
    20    18    19    1
    21    19    20   ar
    22    20    21   ar
    23    21    22   ar
    24    22    23   ar
    25    23    24   ar
    26    10    11   ar
    27    11     1   ar
    28    11     6   ar
    29    24    19   ar
    30    25    26    1
    31     4    12    1
    32     4    13    1
@<TRIPOS>MOLECULE
*****
 30 32 0 0 0
SMALL
GASTEIGER

@<TRIPOS>ATOM
      1 C          61.4074   93.0846    1.7446 C.ar    1  UNL1        0.1329
      2 N          62.0960   92.0908    2.6324 N.ar    1  UNL1       -0.1993
      3 C          63.5666   91.8392    2.4774 C.ar    1  UNL1        0.2148
      4 N          64.2551   90.8453    3.3653 N.pl3   1  UNL1       -0.3274
      5 N          64.3486   92.5814    1.4346 N.ar    1  UNL1       -0.2139
      6 C          63.6601   93.5752    0.5467 C.ar    1  UNL1        0.0870
      7 C          64.4421   94.3174   -0.4961 C.ar    1  UNL1        0.0193
      8 C          63.7536   95.3112   -1.3839 C.ar    1  UNL1        0.0017
      9 C          62.2830   95.5628   -1.2289 C.ar    1  UNL1        0.0047
     10 C          61.5009   94.8206   -0.1861 C.ar    1  UNL1        0.0577
     11 C          62.1895   93.8268    0.7017 C.ar    1  UNL1        0.0536
     12 H          63.7418   90.3582    4.0497 H       1  UNL1        0.1452
     13 H          65.2203   90.6802    3.2635 H       1  UNL1        0.1452
     14 C          60.0303   95.0722   -0.0310 C.2     1  UNL1        0.2494
     15 O          59.5424   96.0712    0.9759 O.2     1  UNL1       -0.2699
     16 N          59.0477   94.3249   -0.8829 N.am    1  UNL1       -0.2702
     17 C          57.5771   94.5765   -0.7279 C.3     1  UNL1        0.1155
     18 C          59.5356   93.3259   -1.8899 C.3     1  UNL1        0.1205
     19 C          58.8689   93.2247   -3.2298 C.ar    1  UNL1       -0.0023
     20 C          57.8604   92.1443   -3.4861 C.ar    1  UNL1       -0.0026
     21 C          57.1938   92.0431   -4.8260 C.ar    1  UNL1       -0.0003
     22 C          57.5356   93.0224   -5.9096 C.ar    1  UNL1       -0.0000
     23 C          58.5440   94.1028   -5.6534 C.ar    1  UNL1       -0.0003
     24 C          59.2107   94.2040   -4.3134 C.ar    1  UNL1       -0.0026
     25 N          59.9368   93.3362    1.8996 N.pl3   1  UNL1       -0.3180
     26 H          59.5157   94.0953    1.4353 H       1  UNL1        0.1482
     27 C          59.1079   92.4313    2.7622 C.3     1  UNL1        0.0882
     28 C          59.2950   92.4353    4.2504 C.3     1  UNL1        0.0212
     29 C          59.0720   90.3077    5.7249 C.3     1  UNL1        0.0001
     30 C          58.4622   91.5342    5.1134 C.3     1  UNL1        0.0017
@<TRIPOS>BOND
     1    29    30    1
     2    30    28    1
     3    28    27    1
     4    27    25    1
     5    25     1    1
     6     1     2   ar
     7     2     3   ar
     8     3     4    1
     9     3     5   ar
    10     5     6   ar
    11     6     7   ar
    12     7     8   ar
    13     8     9   ar
    14     9    10   ar
    15    10    14    1
    16    14    15    2
    17    14    16   am
    18    16    17    1
    19    16    18    1
    20    18    19    1
    21    19    20   ar
    22    20    21   ar
    23    21    22   ar
    24    22    23   ar
    25    23    24   ar
    26    10    11   ar
    27    11     1   ar
    28    11     6   ar
    29    24    19   ar
    30    25    26    1
    31     4    12    1
    32     4    13    1
