@<TRIPOS>MOLECULE
*****
 33 36 0 0 0
SMALL
GASTEIGER

@<TRIPOS>ATOM
      1 C          63.6966   86.2549   13.5437 C.ar    1  UNL1        0.1056
      2 C          63.2874   87.3195   12.5693 C.ar    1  UNL1        0.0181
      3 C          63.5136   88.7651   12.8991 C.ar    1  UNL1       -0.0013
      4 C          64.1489   89.1464   14.2033 C.ar    1  UNL1       -0.0025
      5 C          64.5580   88.0820   15.1777 C.ar    1  UNL1       -0.0013
      6 C          64.3319   86.6362   14.8480 C.ar    1  UNL1        0.0181
      7 S          63.4705   84.8093   13.2139 S.O2    1  UNL1        0.0071
      8 O          62.2029   85.1709   12.4980 O.2     1  UNL1       -0.1687
      9 O          64.7380   84.4477   13.9298 O.2     1  UNL1       -0.1687
     10 N          62.7920   80.4721   12.2245 N.3     1  UNL1       -0.2726
     11 C          62.6203   80.9556   13.6340 C.3     1  UNL1        0.0739
     12 C          62.8464   82.4013   13.9638 C.3     1  UNL1        0.0413
     13 C          63.2443   83.3636   12.8841 C.3     1  UNL1        0.1366
     14 C          63.4160   82.8801   11.4745 C.3     1  UNL1        0.0413
     15 C          63.1899   81.4344   11.1448 C.3     1  UNL1        0.0739
     16 C          62.5659   79.0265   11.8946 C.3     1  UNL1        0.0720
     17 C          63.2434   77.1182   10.2669 C.3     1  UNL1        0.0014
     18 C          62.7956   78.5311   10.4975 C.3     1  UNL1        0.0160
     19 C          62.5776   79.4486    9.3311 C.3     1  UNL1        0.0014
     20 C          64.3750   90.5922   14.5331 C.3     1  UNL1        0.1167
     21 N          64.6680   91.5743   13.4379 N.am    1  UNL1       -0.2944
     22 C          66.0643   92.0867   13.2437 C.2     1  UNL1        0.2808
     23 O          67.1676   91.6169   14.1448 O.2     1  UNL1       -0.2668
     24 H          63.9439   91.8826   12.8465 H       1  UNL1        0.1501
     25 C          66.3574   93.0688   12.1485 C.ar    1  UNL1        0.1984
     26 C          66.8967   92.7379   10.7885 C.ar    1  UNL1        0.0453
     27 C          67.0352   94.0188   10.0204 C.ar    1  UNL1        0.0409
     28 C          67.5158   94.3081    8.6293 C.ar    1  UNL1        0.0238
     29 C          67.5427   95.7199    8.1234 C.ar    1  UNL1        0.0991
     30 N          67.0889   96.8425    9.0087 N.ar    1  UNL1       -0.2391
     31 C          66.6082   96.5533   10.3999 C.ar    1  UNL1        0.1362
     32 C          66.5814   95.1415   10.9057 C.ar    1  UNL1        0.1646
     33 O          66.1625   94.5543   12.2209 O.2     1  UNL1       -0.4473
@<TRIPOS>BOND
     1    17    18    1
     2    18    19    1
     3    18    16    1
     4    16    10    1
     5    10    11    1
     6    11    12    1
     7    12    13    1
     8    13     7    1
     9     7     8    2
    10     7     9    2
    11     7     1    1
    12     1     2   ar
    13     2     3   ar
    14     3     4   ar
    15     4    20    1
    16    20    21    1
    17    21    22   am
    18    22    23    2
    19    22    25    1
    20    25    26   ar
    21    26    27   ar
    22    27    28   ar
    23    28    29   ar
    24    29    30   ar
    25    30    31   ar
    26    31    32   ar
    27    32    33   ar
    28     4     5   ar
    29     5     6   ar
    30    13    14    1
    31    14    15    1
    32    15    10    1
    33     6     1   ar
    34    33    25   ar
    35    32    27   ar
    36    21    24    1
@<TRIPOS>MOLECULE
*****
 33 36 0 0 0
SMALL
GASTEIGER

@<TRIPOS>ATOM
      1 C          61.1000   92.5525    2.8521 C.ar    1  UNL1        0.1056
      2 C          59.6557   92.7887    3.1812 C.ar    1  UNL1        0.0181
      3 C          59.0046   92.0207    4.2931 C.ar    1  UNL1       -0.0013
      4 C          59.7977   91.0166    5.0759 C.ar    1  UNL1       -0.0025
      5 C          61.2419   90.7804    4.7468 C.ar    1  UNL1       -0.0013
      6 C          61.8931   91.5484    3.6349 C.ar    1  UNL1        0.0181
      7 S          61.7512   93.3204    1.7402 S.O2    1  UNL1        0.0071
      8 O          62.9602   92.4381    1.8389 O.2     1  UNL1       -0.1687
      9 O          60.5422   94.2027    1.6416 O.2     1  UNL1       -0.1687
     10 N          63.7046   95.6242   -1.5954 N.3     1  UNL1       -0.2726
     11 C          62.2103   95.5058   -1.5405 C.3     1  UNL1        0.0739
     12 C          61.5591   94.7378   -0.4286 C.3     1  UNL1        0.0413
     13 C          62.4023   94.0883    0.6284 C.3     1  UNL1        0.1366
     14 C          63.8966   94.2067    0.5735 C.3     1  UNL1        0.0413
     15 C          64.5477   94.9747   -0.5385 C.3     1  UNL1        0.0739
     16 C          64.3557   96.3921   -2.7073 C.3     1  UNL1        0.0720
     17 C          64.4805   94.2310   -4.1439 C.3     1  UNL1        0.0014
     18 C          64.8280   95.6754   -3.9375 C.3     1  UNL1        0.0160
     19 C          65.6479   96.4033   -4.9612 C.3     1  UNL1        0.0014
     20 C          59.1465   90.2487    6.1878 C.3     1  UNL1        0.1167
     21 N          59.9714   89.7451    7.3349 N.am    1  UNL1       -0.2944
     22 C          59.6943   88.3924    7.9210 C.2     1  UNL1        0.2808
     23 O          58.5923   87.5435    7.3601 O.2     1  UNL1       -0.2668
     24 H          60.6947   90.3023    7.7031 H       1  UNL1        0.1501
     25 C          60.5193   87.8888    9.0681 C.ar    1  UNL1        0.1984
     26 C          60.7039   86.4521    9.4575 C.ar    1  UNL1        0.0453
     27 C          61.6032   86.4088   10.6573 C.ar    1  UNL1        0.0409
     28 C          62.1320   85.2676   11.4746 C.ar    1  UNL1        0.0238
     29 C          63.0320   85.5365   12.6440 C.ar    1  UNL1        0.0991
     30 N          63.4032   86.9466   12.9962 N.ar    1  UNL1       -0.2391
     31 C          62.8743   88.0877   12.1789 C.ar    1  UNL1        0.1362
     32 C          61.9744   87.8188   11.0094 C.ar    1  UNL1        0.1646
     33 O          61.3045   88.7335   10.0273 O.2     1  UNL1       -0.4473
@<TRIPOS>BOND
     1    17    18    1
     2    18    19    1
     3    18    16    1
     4    16    10    1
     5    10    11    1
     6    11    12    1
     7    12    13    1
     8    13     7    1
     9     7     8    2
    10     7     9    2
    11     7     1    1
    12     1     2   ar
    13     2     3   ar
    14     3     4   ar
    15     4    20    1
    16    20    21    1
    17    21    22   am
    18    22    23    2
    19    22    25    1
    20    25    26   ar
    21    26    27   ar
    22    27    28   ar
    23    28    29   ar
    24    29    30   ar
    25    30    31   ar
    26    31    32   ar
    27    32    33   ar
    28     4     5   ar
    29     5     6   ar
    30    13    14    1
    31    14    15    1
    32    15    10    1
    33     6     1   ar
    34    33    25   ar
    35    32    27   ar
    36    21    24    1
@<TRIPOS>MOLECULE
*****
 33 36 0 0 0
SMALL
GASTEIGER

@<TRIPOS>ATOM
      1 C          60.2733   92.0793    3.6795 C.ar    1  UNL1        0.1056
      2 C          58.8118   92.1231    4.0149 C.ar    1  UNL1        0.0181
      3 C          58.2687   91.2605    5.1152 C.ar    1  UNL1       -0.0013
      4 C          59.1869   90.3541    5.8803 C.ar    1  UNL1       -0.0025
      5 C          60.6483   90.3104    5.5451 C.ar    1  UNL1       -0.0013
      6 C          61.1915   91.1730    4.4446 C.ar    1  UNL1        0.0181
      7 S          60.8164   92.9419    2.5791 S.O2    1  UNL1        0.0071
      8 O          59.4252   93.3934    2.2464 O.2     1  UNL1       -0.1687
      9 O          62.2076   92.4905    2.9119 O.2     1  UNL1       -0.1687
     10 N          62.4459   95.5297   -0.7221 N.3     1  UNL1       -0.2726
     11 C          62.4088   94.0392   -0.8864 C.3     1  UNL1        0.0739
     12 C          61.8657   93.1766    0.2140 C.3     1  UNL1        0.0413
     13 C          61.3596   93.8045    1.4788 C.3     1  UNL1        0.1366
     14 C          61.3966   95.2950    1.6431 C.3     1  UNL1        0.0413
     15 C          61.9398   96.1576    0.5426 C.3     1  UNL1        0.0739
     16 C          62.9890   96.3923   -1.8224 C.3     1  UNL1        0.0720
     17 C          65.4257   96.3894   -0.9210 C.3     1  UNL1        0.0014
     18 C          64.4670   96.4461   -2.0732 C.3     1  UNL1        0.0160
     19 C          64.9861   96.5565   -3.4762 C.3     1  UNL1        0.0014
     20 C          58.6437   89.4915    6.9808 C.3     1  UNL1        0.1167
     21 N          59.4627   88.3547    7.5162 N.am    1  UNL1       -0.2944
     22 C          60.1466   88.4837    8.8450 C.2     1  UNL1        0.2808
     23 O          60.0114   89.7495    9.6383 O.2     1  UNL1       -0.2668
     24 H          59.5514   87.5238    6.9956 H       1  UNL1        0.1501
     25 C          60.9657   87.3468    9.3805 C.ar    1  UNL1        0.1984
     26 C          61.8637   86.4526    8.5781 C.ar    1  UNL1        0.0453
     27 C          62.4836   85.4577    9.5141 C.ar    1  UNL1        0.0409
     28 C          63.4504   84.3335    9.2874 C.ar    1  UNL1        0.0238
     29 C          63.9022   83.4887   10.4416 C.ar    1  UNL1        0.0991
     30 N          63.3872   83.7681   11.8224 N.ar    1  UNL1       -0.2391
     31 C          62.4204   84.8923   12.0491 C.ar    1  UNL1        0.1362
     32 C          61.9686   85.7371   10.8949 C.ar    1  UNL1        0.1646
     33 O          61.0305   86.9046   10.8123 O.2     1  UNL1       -0.4473
@<TRIPOS>BOND
     1    17    18    1
     2    18    19    1
     3    18    16    1
     4    16    10    1
     5    10    11    1
     6    11    12    1
     7    12    13    1
     8    13     7    1
     9     7     8    2
    10     7     9    2
    11     7     1    1
    12     1     2   ar
    13     2     3   ar
    14     3     4   ar
    15     4    20    1
    16    20    21    1
    17    21    22   am
    18    22    23    2
    19    22    25    1
    20    25    26   ar
    21    26    27   ar
    22    27    28   ar
    23    28    29   ar
    24    29    30   ar
    25    30    31   ar
    26    31    32   ar
    27    32    33   ar
    28     4     5   ar
    29     5     6   ar
    30    13    14    1
    31    14    15    1
    32    15    10    1
    33     6     1   ar
    34    33    25   ar
    35    32    27   ar
    36    21    24    1
@<TRIPOS>MOLECULE
*****
 33 36 0 0 0
SMALL
GASTEIGER

@<TRIPOS>ATOM
      1 C          60.7741   87.3596    9.0713 C.ar    1  UNL1        0.1056
      2 C          60.9668   88.8273    9.3142 C.ar    1  UNL1        0.0181
      3 C          60.3611   89.8286    8.3760 C.ar    1  UNL1       -0.0013
      4 C          59.5626   89.3625    7.1948 C.ar    1  UNL1       -0.0025
      5 C          59.3698   87.8949    6.9519 C.ar    1  UNL1       -0.0013
      6 C          59.9755   86.8934    7.8901 C.ar    1  UNL1        0.0181
      7 S          61.3798   86.3582   10.0095 S.O2    1  UNL1        0.0071
      8 O          62.0346   85.6679    8.8499 O.2     1  UNL1       -0.1687
      9 O          60.7250   87.0485   11.1690 O.2     1  UNL1       -0.1687
     10 N          63.1971   83.3540   12.8241 N.3     1  UNL1       -0.2726
     11 C          62.5704   84.6050   13.3648 C.3     1  UNL1        0.0739
     12 C          61.9647   85.6064   12.4266 C.3     1  UNL1        0.0413
     13 C          61.9855   85.3568   10.9476 C.3     1  UNL1        0.1366
     14 C          62.6121   84.1058   10.4069 C.3     1  UNL1        0.0413
     15 C          63.2179   83.1044   11.3452 C.3     1  UNL1        0.0739
     16 C          63.8028   82.3527   13.7623 C.3     1  UNL1        0.0720
     17 C          61.5881   81.0853   14.2515 C.3     1  UNL1        0.0014
     18 C          63.0768   81.0760   14.0676 C.3     1  UNL1        0.0160
     19 C          63.8394   79.7901   14.1889 C.3     1  UNL1        0.0014
     20 C          58.9568   90.3640    6.2566 C.3     1  UNL1        0.1167
     21 N          59.8193   91.0659    5.2499 N.am    1  UNL1       -0.2944
     22 C          59.2171   92.0810    4.3243 C.2     1  UNL1        0.2808
     23 O          57.7525   92.3943    4.4055 O.2     1  UNL1       -0.2668
     24 H          60.7806   90.8602    5.1967 H       1  UNL1        0.1501
     25 C          60.0796   92.7830    3.3176 C.ar    1  UNL1        0.1984
     26 C          61.4619   92.3739    2.9030 C.ar    1  UNL1        0.0453
     27 C          61.9478   93.3553    1.8779 C.ar    1  UNL1        0.0409
     28 C          63.2357   93.4554    1.1155 C.ar    1  UNL1        0.0238
     29 C          63.4417   94.5710    0.1343 C.ar    1  UNL1        0.0991
     30 N          62.3597   95.5866   -0.0846 N.ar    1  UNL1       -0.2391
     31 C          61.0718   95.4865    0.6778 C.ar    1  UNL1        0.1362
     32 C          60.8659   94.3709    1.6590 C.ar    1  UNL1        0.1646
     33 O          59.7112   94.0171    2.5488 O.2     1  UNL1       -0.4473
@<TRIPOS>BOND
     1    17    18    1
     2    18    19    1
     3    18    16    1
     4    16    10    1
     5    10    11    1
     6    11    12    1
     7    12    13    1
     8    13     7    1
     9     7     8    2
    10     7     9    2
    11     7     1    1
    12     1     2   ar
    13     2     3   ar
    14     3     4   ar
    15     4    20    1
    16    20    21    1
    17    21    22   am
    18    22    23    2
    19    22    25    1
    20    25    26   ar
    21    26    27   ar
    22    27    28   ar
    23    28    29   ar
    24    29    30   ar
    25    30    31   ar
    26    31    32   ar
    27    32    33   ar
    28     4     5   ar
    29     5     6   ar
    30    13    14    1
    31    14    15    1
    32    15    10    1
    33     6     1   ar
    34    33    25   ar
    35    32    27   ar
    36    21    24    1
@<TRIPOS>MOLECULE
*****
 33 36 0 0 0
SMALL
GASTEIGER

@<TRIPOS>ATOM
      1 C          64.6550   90.9283   14.1660 C.ar    1  UNL1        0.1056
      2 C          64.4029   91.2524   15.6087 C.ar    1  UNL1        0.0181
      3 C          63.8735   90.1965   16.5332 C.ar    1  UNL1       -0.0013
      4 C          63.5961   88.8165   16.0150 C.ar    1  UNL1       -0.0025
      5 C          63.8481   88.4923   14.5723 C.ar    1  UNL1       -0.0013
      6 C          64.3775   89.5483   13.6478 C.ar    1  UNL1        0.0181
      7 S          65.1844   91.9842   13.2415 S.O2    1  UNL1        0.0071
      8 O          64.1545   91.6053   12.2189 O.2     1  UNL1       -0.1687
      9 O          66.2143   92.3631   14.2640 O.2     1  UNL1       -0.1687
     10 N          66.7727   95.1520   10.4680 N.3     1  UNL1       -0.2726
     11 C          66.4424   93.7881    9.9380 C.3     1  UNL1        0.0739
     12 C          65.9130   92.7322   10.8625 C.3     1  UNL1        0.0413
     13 C          65.7138   93.0401   12.3170 C.3     1  UNL1        0.1366
     14 C          66.0442   94.4039   12.8470 C.3     1  UNL1        0.0413
     15 C          66.5736   95.4599   11.9224 C.3     1  UNL1        0.0739
     16 C          67.3022   96.2079    9.5435 C.3     1  UNL1        0.0720
     17 C          65.0207   96.8560    8.4829 C.3     1  UNL1        0.0014
     18 C          66.4979   96.6320    8.3504 C.3     1  UNL1        0.0160
     19 C          67.1709   96.8323    7.0249 C.3     1  UNL1        0.0014
     20 C          63.0666   87.7605   16.9396 C.3     1  UNL1        0.1167
     21 N          62.6779   86.4165   16.3988 N.am    1  UNL1       -0.2944
     22 C          63.6923   85.5735   15.6845 C.2     1  UNL1        0.2808
     23 O          65.0954   86.0746   15.5109 O.2     1  UNL1       -0.2668
     24 H          61.7570   86.0876   16.5127 H       1  UNL1        0.1501
     25 C          63.3037   84.2295   15.1436 C.ar    1  UNL1        0.1984
     26 C          64.2241   83.2431   14.4881 C.ar    1  UNL1        0.0453
     27 C          63.4156   82.0398   14.1027 C.ar    1  UNL1        0.0409
     28 C          63.7891   80.7545   13.4257 C.ar    1  UNL1        0.0238
     29 C          62.7424   79.7119   13.1660 C.ar    1  UNL1        0.0991
     30 N          61.3223   79.9547   13.5835 N.ar    1  UNL1       -0.2391
     31 C          60.9488   81.2400   14.2605 C.ar    1  UNL1        0.1362
     32 C          61.9955   82.2826   14.5201 C.ar    1  UNL1        0.1646
     33 O          61.9263   83.6358   15.1635 O.2     1  UNL1       -0.4473
@<TRIPOS>BOND
     1    17    18    1
     2    18    19    1
     3    18    16    1
     4    16    10    1
     5    10    11    1
     6    11    12    1
     7    12    13    1
     8    13     7    1
     9     7     8    2
    10     7     9    2
    11     7     1    1
    12     1     2   ar
    13     2     3   ar
    14     3     4   ar
    15     4    20    1
    16    20    21    1
    17    21    22   am
    18    22    23    2
    19    22    25    1
    20    25    26   ar
    21    26    27   ar
    22    27    28   ar
    23    28    29   ar
    24    29    30   ar
    25    30    31   ar
    26    31    32   ar
    27    32    33   ar
    28     4     5   ar
    29     5     6   ar
    30    13    14    1
    31    14    15    1
    32    15    10    1
    33     6     1   ar
    34    33    25   ar
    35    32    27   ar
    36    21    24    1
@<TRIPOS>MOLECULE
*****
 33 36 0 0 0
SMALL
GASTEIGER

@<TRIPOS>ATOM
      1 C          60.1807   92.2880    3.4074 C.ar    1  UNL1        0.1056
      2 C          58.7834   92.2415    3.9511 C.ar    1  UNL1        0.0181
      3 C          58.4535   91.3284    5.0945 C.ar    1  UNL1       -0.0013
      4 C          59.5209   90.4617    5.6942 C.ar    1  UNL1       -0.0025
      5 C          60.9181   90.5081    5.1506 C.ar    1  UNL1       -0.0013
      6 C          61.2480   91.4213    4.0071 C.ar    1  UNL1        0.0181
      7 S          60.5106   93.2011    2.2640 S.O2    1  UNL1        0.0071
      8 O          59.0610   93.2455    1.8813 O.2     1  UNL1       -0.1687
      9 O          61.9602   93.1566    2.6468 O.2     1  UNL1       -0.1687
     10 N          61.5002   95.9405   -1.1662 N.3     1  UNL1       -0.2726
     11 C          60.1966   96.0895   -0.4394 C.3     1  UNL1        0.0739
     12 C          59.8667   95.1764    0.7040 C.3     1  UNL1        0.0413
     13 C          60.8405   94.1142    1.1206 C.3     1  UNL1        0.1366
     14 C          62.1441   93.9651    0.3938 C.3     1  UNL1        0.0413
     15 C          62.4740   94.8783   -0.7496 C.3     1  UNL1        0.0739
     16 C          61.8301   96.8536   -2.3096 C.3     1  UNL1        0.0720
     17 C          60.9964   95.2117   -4.1424 C.3     1  UNL1        0.0014
     18 C          61.9224   96.3069   -3.7034 C.3     1  UNL1        0.0160
     19 C          62.9409   96.8556   -4.6582 C.3     1  UNL1        0.0014
     20 C          59.1909   89.5486    6.8377 C.3     1  UNL1        0.1167
     21 N          60.0482   89.5481    8.0685 N.am    1  UNL1       -0.2944
     22 C          60.4777   88.2488    8.6829 C.2     1  UNL1        0.2808
     23 O          60.0499   86.9501    8.0663 O.2     1  UNL1       -0.2668
     24 H          60.3290   90.4005    8.4732 H       1  UNL1        0.1501
     25 C          61.3350   88.2484    9.9137 C.ar    1  UNL1        0.1984
     26 C          61.8915   89.4599   10.6011 C.ar    1  UNL1        0.0453
     27 C          62.6868   88.9966   11.7856 C.ar    1  UNL1        0.0409
     28 C          63.4616   89.7452   12.8292 C.ar    1  UNL1        0.0238
     29 C          64.1716   88.9958   13.9174 C.ar    1  UNL1        0.0991
     30 N          64.1066   87.4979   13.9621 N.ar    1  UNL1       -0.2391
     31 C          63.3317   86.7493   12.9185 C.ar    1  UNL1        0.1362
     32 C          62.6218   87.4987   11.8302 C.ar    1  UNL1        0.1646
     33 O          61.7864   87.0363   10.6734 O.2     1  UNL1       -0.4473
@<TRIPOS>BOND
     1    17    18    1
     2    18    19    1
     3    18    16    1
     4    16    10    1
     5    10    11    1
     6    11    12    1
     7    12    13    1
     8    13     7    1
     9     7     8    2
    10     7     9    2
    11     7     1    1
    12     1     2   ar
    13     2     3   ar
    14     3     4   ar
    15     4    20    1
    16    20    21    1
    17    21    22   am
    18    22    23    2
    19    22    25    1
    20    25    26   ar
    21    26    27   ar
    22    27    28   ar
    23    28    29   ar
    24    29    30   ar
    25    30    31   ar
    26    31    32   ar
    27    32    33   ar
    28     4     5   ar
    29     5     6   ar
    30    13    14    1
    31    14    15    1
    32    15    10    1
    33     6     1   ar
    34    33    25   ar
    35    32    27   ar
    36    21    24    1
@<TRIPOS>MOLECULE
*****
 33 36 0 0 0
SMALL
GASTEIGER

@<TRIPOS>ATOM
      1 C          64.4664   89.5275   14.6468 C.ar    1  UNL1        0.1056
      2 C          63.6430   89.5681   15.9000 C.ar    1  UNL1        0.0181
      3 C          63.2058   88.2900   16.5519 C.ar    1  UNL1       -0.0013
      4 C          63.5919   86.9711   15.9507 C.ar    1  UNL1       -0.0025
      5 C          64.4153   86.9304   14.6976 C.ar    1  UNL1       -0.0013
      6 C          64.8525   88.2086   14.0456 C.ar    1  UNL1        0.0181
      7 S          64.9036   90.8057   13.9949 S.O2    1  UNL1        0.0071
      8 O          63.7738   90.6922   13.0147 O.2     1  UNL1       -0.1687
      9 O          66.0333   90.9192   14.9750 O.2     1  UNL1       -0.1687
     10 N          66.2152   94.6403   12.0390 N.3     1  UNL1       -0.2726
     11 C          65.4469   93.6210   11.2511 C.3     1  UNL1        0.0739
     12 C          65.0097   92.3428   11.9030 C.3     1  UNL1        0.0413
     13 C          65.3408   92.0839   13.3429 C.3     1  UNL1        0.1366
     14 C          66.1090   93.1031   14.1309 C.3     1  UNL1        0.0413
     15 C          66.5462   94.3814   13.4789 C.3     1  UNL1        0.0739
     16 C          66.6524   95.9185   11.3871 C.3     1  UNL1        0.0720
     17 C          65.0166   96.8550    9.5990 C.3     1  UNL1        0.0014
     18 C          66.3106   96.1829    9.9506 C.3     1  UNL1        0.0160
     19 C          67.2630   95.7751    8.8658 C.3     1  UNL1        0.0014
     20 C          63.1547   85.6929   16.6027 C.3     1  UNL1        0.1167
     21 N          63.2025   84.4049   15.8353 N.am    1  UNL1       -0.2944
     22 C          62.5385   84.3061   14.4939 C.2     1  UNL1        0.2808
     23 O          61.8268   85.4952   13.9199 O.2     1  UNL1       -0.2668
     24 H          63.6696   83.6245   16.2120 H       1  UNL1        0.1501
     25 C          62.5863   83.0182   13.7264 C.ar    1  UNL1        0.1984
     26 C          62.8887   82.8737   12.2644 C.ar    1  UNL1        0.0453
     27 C          62.8294   81.4148   11.9206 C.ar    1  UNL1        0.0409
     28 C          63.0403   80.6781   10.6312 C.ar    1  UNL1        0.0238
     29 C          62.9121   79.1842   10.5914 C.ar    1  UNL1        0.0991
     30 N          62.5731   78.4269   11.8411 N.ar    1  UNL1       -0.2391
     31 C          62.3622   79.1637   13.1305 C.ar    1  UNL1        0.1362
     32 C          62.4903   80.6576   13.1703 C.ar    1  UNL1        0.1646
     33 O          62.3401   81.6485   14.2863 O.2     1  UNL1       -0.4473
@<TRIPOS>BOND
     1    17    18    1
     2    18    19    1
     3    18    16    1
     4    16    10    1
     5    10    11    1
     6    11    12    1
     7    12    13    1
     8    13     7    1
     9     7     8    2
    10     7     9    2
    11     7     1    1
    12     1     2   ar
    13     2     3   ar
    14     3     4   ar
    15     4    20    1
    16    20    21    1
    17    21    22   am
    18    22    23    2
    19    22    25    1
    20    25    26   ar
    21    26    27   ar
    22    27    28   ar
    23    28    29   ar
    24    29    30   ar
    25    30    31   ar
    26    31    32   ar
    27    32    33   ar
    28     4     5   ar
    29     5     6   ar
    30    13    14    1
    31    14    15    1
    32    15    10    1
    33     6     1   ar
    34    33    25   ar
    35    32    27   ar
    36    21    24    1
