@<TRIPOS>MOLECULE
*****
 32 35 0 0 0
SMALL
GASTEIGER

@<TRIPOS>ATOM
      1 C          64.7578   88.0579   14.7390 C.3     1  UNL1        0.0328
      2 C          64.0204   88.7086   13.6062 C.ar    1  UNL1        0.0002
      3 C          64.0936   90.1952   13.4193 C.ar    1  UNL1        0.0774
      4 N          63.3564   90.8459   12.2867 N.ar    1  UNL1       -0.2457
      5 C          62.5458   90.0101   11.3408 C.ar    1  UNL1        0.0814
      6 C          61.8086   90.6608   10.2082 C.ar    1  UNL1        0.0200
      7 C          60.9981   89.8250    9.2624 C.ar    1  UNL1        0.0129
      8 C          60.9249   88.3385    9.4493 C.ar    1  UNL1        0.0578
      9 CL         60.1144   87.5027    8.5034 Cl      1  UNL1       -0.0822
     10 C          61.6622   87.6878   10.5820 C.ar    1  UNL1        0.0130
     11 C          62.4726   88.5236   11.5277 C.ar    1  UNL1        0.0226
     12 C          63.2100   87.8729   12.6605 C.ar    1  UNL1        0.0526
     13 C          64.9042   91.0310   14.3652 C.ar    1  UNL1        0.0173
     14 C          66.3041   91.4294   14.0029 C.ar    1  UNL1        0.0015
     15 C          67.1146   92.2651   14.9487 C.ar    1  UNL1        0.0000
     16 C          66.5251   92.7025   16.2568 C.ar    1  UNL1        0.0000
     17 C          65.1251   92.3041   16.6191 C.ar    1  UNL1        0.0000
     18 C          64.3147   91.4683   15.6733 C.ar    1  UNL1        0.0015
     19 C          63.1368   86.3863   12.8473 C.2     1  UNL1        0.2493
     20 O          63.1981   85.7999   14.2266 O.2     1  UNL1       -0.2698
     21 N          63.0022   85.4863   11.6549 N.am    1  UNL1       -0.2786
     22 H          62.9620   85.8712   10.7497 H       1  UNL1        0.1552
     23 C          62.9290   83.9997   11.8418 C.ar    1  UNL1        0.0784
     24 C          62.4124   83.4303   13.1297 C.ar    1  UNL1        0.0170
     25 C          62.3392   81.9438   13.3166 C.ar    1  UNL1        0.0025
     26 C          62.7826   81.0267   12.2156 C.ar    1  UNL1        0.0163
     27 C          63.2992   81.5962   10.9275 C.ar    1  UNL1        0.0320
     28 C          63.3724   83.0827   10.7407 C.ar    1  UNL1        0.1535
     29 F          63.8890   83.6521    9.4527 F       1  UNL1       -0.2029
     30 C          62.7094   79.5402   12.4024 C.2     1  UNL1        0.0729
     31 O          62.6855   78.9584   13.7848 O.co2   1  UNL1       -0.5446
     32 O          62.6601   78.6355   11.2070 O.co2   1  UNL1       -0.5446
@<TRIPOS>UNITY_ATOM_ATTR
31 1
charge -1
@<TRIPOS>BOND
     1     1     2    1
     2     2     3   ar
     3     3    13    1
     4    13    14   ar
     5    14    15   ar
     6    15    16   ar
     7    16    17   ar
     8    17    18   ar
     9     3     4   ar
    10     4     5   ar
    11     5     6   ar
    12     6     7   ar
    13     7     8   ar
    14     8     9    1
    15     8    10   ar
    16    10    11   ar
    17    11    12   ar
    18    12    19    1
    19    19    20    2
    20    19    21   am
    21    21    23    1
    22    23    24   ar
    23    24    25   ar
    24    25    26   ar
    25    26    30    1
    26    30    31   ar
    27    30    32   ar
    28    26    27   ar
    29    27    28   ar
    30    28    29    1
    31    12     2   ar
    32    28    23   ar
    33    18    13   ar
    34    11     5   ar
    35    21    22    1
@<TRIPOS>MOLECULE
*****
 32 35 0 0 0
SMALL
GASTEIGER

@<TRIPOS>ATOM
      1 C          64.2702   87.6964   13.7862 C.3     1  UNL1        0.0328
      2 C          63.4169   88.4278   12.7927 C.ar    1  UNL1        0.0002
      3 C          63.3592   89.9266   12.8132 C.ar    1  UNL1        0.0774
      4 N          62.5060   90.6580   11.8198 N.ar    1  UNL1       -0.2457
      5 C          61.7104   89.8907   10.8057 C.ar    1  UNL1        0.0814
      6 C          60.8572   90.6221    9.8123 C.ar    1  UNL1        0.0200
      7 C          60.0617   89.8548    8.7982 C.ar    1  UNL1        0.0129
      8 C          60.1193   88.3561    8.7776 C.ar    1  UNL1        0.0578
      9 CL         59.3237   87.5888    7.7635 Cl      1  UNL1       -0.0822
     10 C          60.9726   87.6246    9.7711 C.ar    1  UNL1        0.0130
     11 C          61.7681   88.3919   10.7851 C.ar    1  UNL1        0.0226
     12 C          62.6214   87.6605   11.7786 C.ar    1  UNL1        0.0526
     13 C          64.1548   90.6939   13.8274 C.ar    1  UNL1        0.0173
     14 C          65.4543   91.3318   13.4346 C.ar    1  UNL1        0.0015
     15 C          66.2498   92.0991   14.4486 C.ar    1  UNL1        0.0000
     16 C          65.7459   92.2284   15.8555 C.ar    1  UNL1        0.0000
     17 C          64.4464   91.5904   16.2483 C.ar    1  UNL1        0.0000
     18 C          63.6509   90.8232   15.2342 C.ar    1  UNL1        0.0015
     19 C          62.6790   86.1618   11.7580 C.2     1  UNL1        0.2493
     20 O          63.0118   85.4414   10.4851 O.2     1  UNL1       -0.2698
     21 N          62.4039   85.3833   13.0104 N.am    1  UNL1       -0.2786
     22 H          62.1855   85.8561   13.8459 H       1  UNL1        0.1552
     23 C          62.4616   83.8846   12.9898 C.ar    1  UNL1        0.0784
     24 C          62.6912   83.1606   11.6964 C.ar    1  UNL1        0.0170
     25 C          62.7489   81.6618   11.6758 C.ar    1  UNL1        0.0025
     26 C          62.5769   80.8871   12.9486 C.ar    1  UNL1        0.0163
     27 C          62.3473   81.6111   14.2422 C.ar    1  UNL1        0.0320
     28 C          62.2896   83.1098   14.2628 C.ar    1  UNL1        0.1535
     29 F          62.0600   83.8339   15.5562 F       1  UNL1       -0.2029
     30 C          62.6346   79.3883   12.9281 C.2     1  UNL1        0.0729
     31 O          62.6811   78.6218   14.2166 O.co2   1  UNL1       -0.5446
     32 O          62.6458   78.6561   11.6190 O.co2   1  UNL1       -0.5446
@<TRIPOS>UNITY_ATOM_ATTR
31 1
charge -1
@<TRIPOS>BOND
     1     1     2    1
     2     2     3   ar
     3     3    13    1
     4    13    14   ar
     5    14    15   ar
     6    15    16   ar
     7    16    17   ar
     8    17    18   ar
     9     3     4   ar
    10     4     5   ar
    11     5     6   ar
    12     6     7   ar
    13     7     8   ar
    14     8     9    1
    15     8    10   ar
    16    10    11   ar
    17    11    12   ar
    18    12    19    1
    19    19    20    2
    20    19    21   am
    21    21    23    1
    22    23    24   ar
    23    24    25   ar
    24    25    26   ar
    25    26    30    1
    26    30    31   ar
    27    30    32   ar
    28    26    27   ar
    29    27    28   ar
    30    28    29    1
    31    12     2   ar
    32    28    23   ar
    33    18    13   ar
    34    11     5   ar
    35    21    22    1
@<TRIPOS>MOLECULE
*****
 32 35 0 0 0
SMALL
GASTEIGER

@<TRIPOS>ATOM
      1 C          61.7074   84.5917   10.5769 C.3     1  UNL1        0.0328
      2 C          62.4036   85.3132   11.6926 C.ar    1  UNL1        0.0002
      3 C          62.9348   84.5449   12.8663 C.ar    1  UNL1        0.0774
      4 N          63.6309   85.2663   13.9820 N.ar    1  UNL1       -0.2457
      5 C          63.7959   86.7561   13.9241 C.ar    1  UNL1        0.0814
      6 C          64.4921   87.4776   15.0399 C.ar    1  UNL1        0.0200
      7 C          64.6570   88.9673   14.9819 C.ar    1  UNL1        0.0129
      8 C          64.1259   89.7356   13.8082 C.ar    1  UNL1        0.0578
      9 CL         64.2909   91.2255   13.7503 Cl      1  UNL1       -0.0822
     10 C          63.4297   89.0142   12.6925 C.ar    1  UNL1        0.0130
     11 C          63.2647   87.5245   12.7505 C.ar    1  UNL1        0.0226
     12 C          62.5686   86.8030   11.6347 C.ar    1  UNL1        0.0526
     13 C          62.7698   83.0551   12.9242 C.ar    1  UNL1        0.0173
     14 C          62.0526   82.4243   14.0808 C.ar    1  UNL1        0.0015
     15 C          61.8876   80.9346   14.1387 C.ar    1  UNL1        0.0000
     16 C          62.4398   80.0756   13.0400 C.ar    1  UNL1        0.0000
     17 C          63.1570   80.7063   11.8834 C.ar    1  UNL1        0.0000
     18 C          63.3219   82.1961   11.8255 C.ar    1  UNL1        0.0015
     19 C          62.0374   87.5713   10.4610 C.2     1  UNL1        0.2493
     20 O          62.9733   88.3655    9.5988 O.2     1  UNL1       -0.2698
     21 N          60.5703   87.5454   10.1495 N.am    1  UNL1       -0.2786
     22 H          59.9560   87.0242   10.7154 H       1  UNL1        0.1552
     23 C          60.0391   88.3138    8.9758 C.ar    1  UNL1        0.0784
     24 C          60.1665   89.8078    8.9377 C.ar    1  UNL1        0.0170
     25 C          59.6353   90.5761    7.7640 C.ar    1  UNL1        0.0025
     26 C          58.9767   89.8504    6.6285 C.ar    1  UNL1        0.0163
     27 C          58.8493   88.3563    6.6665 C.ar    1  UNL1        0.0320
     28 C          59.3805   87.5879    7.8402 C.ar    1  UNL1        0.1535
     29 F          59.2532   86.0939    7.8783 F       1  UNL1       -0.2029
     30 C          58.4456   90.6187    5.4548 C.2     1  UNL1        0.0729
     31 O          59.3943   91.2191    4.4599 O.co2   1  UNL1       -0.5446
     32 O          56.9658   90.7867    5.2759 O.co2   1  UNL1       -0.5446
@<TRIPOS>UNITY_ATOM_ATTR
31 1
charge -1
@<TRIPOS>BOND
     1     1     2    1
     2     2     3   ar
     3     3    13    1
     4    13    14   ar
     5    14    15   ar
     6    15    16   ar
     7    16    17   ar
     8    17    18   ar
     9     3     4   ar
    10     4     5   ar
    11     5     6   ar
    12     6     7   ar
    13     7     8   ar
    14     8     9    1
    15     8    10   ar
    16    10    11   ar
    17    11    12   ar
    18    12    19    1
    19    19    20    2
    20    19    21   am
    21    21    23    1
    22    23    24   ar
    23    24    25   ar
    24    25    26   ar
    25    26    30    1
    26    30    31   ar
    27    30    32   ar
    28    26    27   ar
    29    27    28   ar
    30    28    29    1
    31    12     2   ar
    32    28    23   ar
    33    18    13   ar
    34    11     5   ar
    35    21    22    1
@<TRIPOS>MOLECULE
*****
 32 35 0 0 0
SMALL
GASTEIGER

@<TRIPOS>ATOM
      1 C          59.1626   95.2111   -3.0123 C.3     1  UNL1        0.0328
      2 C          59.3694   94.6247   -1.6472 C.ar    1  UNL1        0.0002
      3 C          58.2046   94.4634   -0.7159 C.ar    1  UNL1        0.0774
      4 N          58.4113   93.8770    0.6491 N.ar    1  UNL1       -0.2457
      5 C          59.7828   93.4519    1.0830 C.ar    1  UNL1        0.0814
      6 C          59.9895   92.8655    2.4480 C.ar    1  UNL1        0.0200
      7 C          61.3610   92.4404    2.8818 C.ar    1  UNL1        0.0129
      8 C          62.5258   92.6017    1.9506 C.ar    1  UNL1        0.0578
      9 CL         63.8974   92.1766    2.3845 Cl      1  UNL1       -0.0822
     10 C          62.3191   93.1881    0.5855 C.ar    1  UNL1        0.0130
     11 C          60.9476   93.6132    0.1517 C.ar    1  UNL1        0.0226
     12 C          60.7409   94.1996   -1.2134 C.ar    1  UNL1        0.0526
     13 C          56.8330   94.8885   -1.1498 C.ar    1  UNL1        0.0173
     14 C          55.8716   93.8753   -1.6966 C.ar    1  UNL1        0.0015
     15 C          54.5002   94.3004   -2.1304 C.ar    1  UNL1        0.0000
     16 C          54.0900   95.7388   -2.0175 C.ar    1  UNL1        0.0000
     17 C          55.0514   96.7521   -1.4707 C.ar    1  UNL1        0.0000
     18 C          56.4229   96.3269   -1.0369 C.ar    1  UNL1        0.0015
     19 C          61.9057   94.3609   -2.1446 C.2     1  UNL1        0.2493
     20 O          62.9636   95.3833   -1.8523 O.2     1  UNL1       -0.2698
     21 N          62.0125   93.4997   -3.3682 N.am    1  UNL1       -0.2786
     22 H          61.3182   92.8287   -3.5600 H       1  UNL1        0.1552
     23 C          63.1774   93.6610   -4.2994 C.ar    1  UNL1        0.0784
     24 C          64.2963   92.6623   -4.2809 C.ar    1  UNL1        0.0170
     25 C          65.4611   92.8236   -5.2121 C.ar    1  UNL1        0.0025
     26 C          65.5070   93.9836   -6.1619 C.ar    1  UNL1        0.0163
     27 C          64.3880   94.9825   -6.1805 C.ar    1  UNL1        0.0320
     28 C          63.2232   94.8212   -5.2492 C.ar    1  UNL1        0.1535
     29 F          62.1042   95.8199   -5.2678 F       1  UNL1       -0.2029
     30 C          66.6718   94.1449   -7.0931 C.2     1  UNL1        0.0729
     31 O          67.0778   95.5126   -7.5565 O.co2   1  UNL1       -0.5446
     32 O          67.4306   92.9386   -7.5610 O.co2   1  UNL1       -0.5446
@<TRIPOS>UNITY_ATOM_ATTR
31 1
charge -1
@<TRIPOS>BOND
     1     1     2    1
     2     2     3   ar
     3     3    13    1
     4    13    14   ar
     5    14    15   ar
     6    15    16   ar
     7    16    17   ar
     8    17    18   ar
     9     3     4   ar
    10     4     5   ar
    11     5     6   ar
    12     6     7   ar
    13     7     8   ar
    14     8     9    1
    15     8    10   ar
    16    10    11   ar
    17    11    12   ar
    18    12    19    1
    19    19    20    2
    20    19    21   am
    21    21    23    1
    22    23    24   ar
    23    24    25   ar
    24    25    26   ar
    25    26    30    1
    26    30    31   ar
    27    30    32   ar
    28    26    27   ar
    29    27    28   ar
    30    28    29    1
    31    12     2   ar
    32    28    23   ar
    33    18    13   ar
    34    11     5   ar
    35    21    22    1
@<TRIPOS>MOLECULE
*****
 32 35 0 0 0
SMALL
GASTEIGER

@<TRIPOS>ATOM
      1 C          57.6522   93.0061   -0.5243 C.3     1  UNL1        0.0328
      2 C          58.7952   93.9684   -0.6574 C.ar    1  UNL1        0.0002
      3 C          58.7917   94.9896   -1.7561 C.ar    1  UNL1        0.0774
      4 N          59.9346   95.9519   -1.8892 N.ar    1  UNL1       -0.2457
      5 C          61.0810   95.8930   -0.9236 C.ar    1  UNL1        0.0814
      6 C          62.2239   96.8553   -1.0567 C.ar    1  UNL1        0.0200
      7 C          63.3702   96.7964   -0.0911 C.ar    1  UNL1        0.0129
      8 C          63.3737   95.7752    1.0076 C.ar    1  UNL1        0.0578
      9 CL         64.5201   95.7163    1.9732 Cl      1  UNL1       -0.0822
     10 C          62.2308   94.8129    1.1407 C.ar    1  UNL1        0.0130
     11 C          61.0845   94.8718    0.1751 C.ar    1  UNL1        0.0226
     12 C          59.9415   93.9095    0.3082 C.ar    1  UNL1        0.0526
     13 C          57.6453   95.0485   -2.7217 C.ar    1  UNL1        0.0173
     14 C          57.7145   94.2920   -4.0150 C.ar    1  UNL1        0.0015
     15 C          56.5681   94.3509   -4.9806 C.ar    1  UNL1        0.0000
     16 C          55.3525   95.1663   -4.6527 C.ar    1  UNL1        0.0000
     17 C          55.2834   95.9229   -3.3594 C.ar    1  UNL1        0.0000
     18 C          56.4297   95.8640   -2.3939 C.ar    1  UNL1        0.0015
     19 C          59.9450   92.8883    1.4069 C.2     1  UNL1        0.2493
     20 O          60.4489   91.5010    1.1397 O.2     1  UNL1       -0.2698
     21 N          59.4445   93.2544    2.7727 N.am    1  UNL1       -0.2786
     22 H          59.1137   94.1650    2.9481 H       1  UNL1        0.1552
     23 C          59.4479   92.2332    3.8714 C.ar    1  UNL1        0.0784
     24 C          58.1632   91.8526    4.5456 C.ar    1  UNL1        0.0170
     25 C          58.1667   90.8314    5.6443 C.ar    1  UNL1        0.0025
     26 C          59.4549   90.1908    6.0688 C.ar    1  UNL1        0.0163
     27 C          60.7397   90.5714    5.3946 C.ar    1  UNL1        0.0320
     28 C          60.7362   91.5926    4.2959 C.ar    1  UNL1        0.1535
     29 F          62.0209   91.9732    3.6217 F       1  UNL1       -0.2029
     30 C          59.4583   89.1696    7.1675 C.2     1  UNL1        0.0729
     31 O          58.5920   87.9496    7.0602 O.co2   1  UNL1       -0.5446
     32 O          60.3280   89.3682    8.3733 O.co2   1  UNL1       -0.5446
@<TRIPOS>UNITY_ATOM_ATTR
31 1
charge -1
@<TRIPOS>BOND
     1     1     2    1
     2     2     3   ar
     3     3    13    1
     4    13    14   ar
     5    14    15   ar
     6    15    16   ar
     7    16    17   ar
     8    17    18   ar
     9     3     4   ar
    10     4     5   ar
    11     5     6   ar
    12     6     7   ar
    13     7     8   ar
    14     8     9    1
    15     8    10   ar
    16    10    11   ar
    17    11    12   ar
    18    12    19    1
    19    19    20    2
    20    19    21   am
    21    21    23    1
    22    23    24   ar
    23    24    25   ar
    24    25    26   ar
    25    26    30    1
    26    30    31   ar
    27    30    32   ar
    28    26    27   ar
    29    27    28   ar
    30    28    29    1
    31    12     2   ar
    32    28    23   ar
    33    18    13   ar
    34    11     5   ar
    35    21    22    1
