@<TRIPOS>MOLECULE
*****
 26 29 0 0 0
SMALL
GASTEIGER

@<TRIPOS>ATOM
      1 C          64.3408   90.8827   12.6619 C.ar    1  UNL1       -0.0003
      2 C          63.8279   91.5886   11.4418 C.ar    1  UNL1       -0.0003
      3 C          62.9423   90.8633   10.4725 C.ar    1  UNL1       -0.0020
      4 C          62.5697   89.4321   10.7232 C.ar    1  UNL1        0.0016
      5 C          63.0826   88.7263   11.9433 C.ar    1  UNL1       -0.0236
      6 C          63.9681   89.4516   12.9126 C.ar    1  UNL1       -0.0045
      7 C          62.5501   87.3240   11.9257 C.3     1  UNL1        0.0292
      8 C          61.7082   87.1633   10.6947 C.3     1  UNL1        0.0401
      9 C          61.7202   88.4661    9.9515 C.3     1  UNL1        0.1257
     10 O          61.5472   89.6174    9.0057 O.3     1  UNL1       -0.3786
     11 H          60.9781   89.3471    8.2681 H       1  UNL1        0.2111
     12 C          66.9975   93.0586   15.5701 C.ar    1  UNL1        0.1660
     13 C          67.3647   93.0015   14.1169 C.ar    1  UNL1        0.0392
     14 C          66.4791   92.2762   13.1475 C.ar    1  UNL1        0.0033
     15 C          65.2264   91.6080   13.6313 C.ar    1  UNL1        0.0024
     16 C          64.8591   91.6651   15.0845 C.ar    1  UNL1        0.0328
     17 C          65.7447   92.3904   16.0539 C.ar    1  UNL1        0.1738
     18 F          65.3774   92.4475   17.5072 F       1  UNL1       -0.2010
     19 C          69.2846   94.1473   16.1478 C.3     1  UNL1        0.2526
     20 O          67.8830   93.7838   16.5396 O.3     1  UNL1       -0.4692
     21 C          60.8347   87.7408    8.9821 C.ar    1  UNL1        0.0087
     22 C          59.6328   88.4283    8.4053 C.ar    1  UNL1        0.0190
     23 C          58.7471   87.7030    7.4359 C.ar    1  UNL1        0.0986
     24 N          59.0635   86.2902    7.0434 N.ar    1  UNL1       -0.2423
     25 C          60.2655   85.6028    7.6203 C.ar    1  UNL1        0.0986
     26 C          61.1510   86.3281    8.5896 C.ar    1  UNL1        0.0190
@<TRIPOS>BOND
     1    19    20    1
     2    20    12    1
     3    12    13   ar
     4    13    14   ar
     5    14    15   ar
     6    15     1    1
     7     1     2   ar
     8     2     3   ar
     9     3     4   ar
    10     4     5   ar
    11     5     6   ar
    12     5     7    1
    13     7     8    1
    14     8     9    1
    15     9    10    1
    16     9    21    1
    17    21    22   ar
    18    22    23   ar
    19    23    24   ar
    20    24    25   ar
    21    25    26   ar
    22    15    16   ar
    23    16    17   ar
    24    17    18    1
    25    17    12   ar
    26     6     1   ar
    27    26    21   ar
    28     9     4    1
    29    10    11    1
@<TRIPOS>MOLECULE
*****
 26 29 0 0 0
SMALL
GASTEIGER

@<TRIPOS>ATOM
      1 C          62.5210   87.8880   10.4300 C.ar    1  UNL1       -0.0003
      2 C          62.5760   89.3726   10.2234 C.ar    1  UNL1       -0.0003
      3 C          63.1097   90.2615   11.3073 C.ar    1  UNL1       -0.0020
      4 C          63.5884   89.6656   12.5980 C.ar    1  UNL1        0.0016
      5 C          63.5334   88.1810   12.8047 C.ar    1  UNL1       -0.0236
      6 C          62.9997   87.2922   11.7207 C.ar    1  UNL1       -0.0045
      7 C          64.0724   87.8831   14.1725 C.3     1  UNL1        0.0292
      8 C          64.4605   89.1837   14.8111 C.3     1  UNL1        0.0401
      9 C          64.1614   90.2854   13.8381 C.3     1  UNL1        0.1257
     10 O          63.9739   91.5728   13.0916 O.3     1  UNL1       -0.3786
     11 H          64.2727   92.3128   13.6431 H       1  UNL1        0.2111
     12 C          60.9197   85.2213    7.1781 C.ar    1  UNL1        0.1660
     13 C          62.3500   85.0980    7.6127 C.ar    1  UNL1        0.0392
     14 C          62.8838   85.9869    8.6967 C.ar    1  UNL1        0.0033
     15 C          61.9872   86.9991    9.3460 C.ar    1  UNL1        0.0024
     16 C          60.5569   87.1224    8.9114 C.ar    1  UNL1        0.0328
     17 C          60.0231   86.2336    7.8274 C.ar    1  UNL1        0.1738
     18 F          58.5927   86.3569    7.3928 F       1  UNL1       -0.2010
     19 C          61.3217   83.7346    5.0858 C.3     1  UNL1        0.2526
     20 O          60.3859   84.3325    6.0941 O.3     1  UNL1       -0.4692
     21 C          64.6951   91.1742   14.9221 C.ar    1  UNL1        0.0087
     22 C          66.0345   91.8304   14.7623 C.ar    1  UNL1        0.0190
     23 C          66.5683   92.7193   15.8463 C.ar    1  UNL1        0.0986
     24 N          65.7627   92.9519   17.0901 N.ar    1  UNL1       -0.2423
     25 C          64.4233   92.2957   17.2498 C.ar    1  UNL1        0.0986
     26 C          63.8896   91.4069   16.1658 C.ar    1  UNL1        0.0190
@<TRIPOS>BOND
     1    19    20    1
     2    20    12    1
     3    12    13   ar
     4    13    14   ar
     5    14    15   ar
     6    15     1    1
     7     1     2   ar
     8     2     3   ar
     9     3     4   ar
    10     4     5   ar
    11     5     6   ar
    12     5     7    1
    13     7     8    1
    14     8     9    1
    15     9    10    1
    16     9    21    1
    17    21    22   ar
    18    22    23   ar
    19    23    24   ar
    20    24    25   ar
    21    25    26   ar
    22    15    16   ar
    23    16    17   ar
    24    17    18    1
    25    17    12   ar
    26     6     1   ar
    27    26    21   ar
    28     9     4    1
    29    10    11    1
@<TRIPOS>MOLECULE
*****
 26 29 0 0 0
SMALL
GASTEIGER

@<TRIPOS>ATOM
      1 C          64.5712   89.9379   14.1562 C.ar    1  UNL1       -0.0003
      2 C          65.6625   90.8440   14.6442 C.ar    1  UNL1       -0.0003
      3 C          66.1254   91.9875   13.7910 C.ar    1  UNL1       -0.0020
      4 C          65.4971   92.2250   12.4498 C.ar    1  UNL1        0.0016
      5 C          64.4059   91.3189   11.9618 C.ar    1  UNL1       -0.0236
      6 C          63.9430   90.1753   12.8150 C.ar    1  UNL1       -0.0045
      7 C          63.9779   91.7972   10.6061 C.3     1  UNL1        0.0292
      8 C          64.8046   92.9990   10.2562 C.3     1  UNL1        0.0401
      9 C          65.7435   93.2634   11.3957 C.3     1  UNL1        0.1257
     10 O          66.7792   93.7668   12.3568 O.3     1  UNL1       -0.3786
     11 H          67.2199   94.5441   11.9794 H       1  UNL1        0.2111
     12 C          63.1824   86.5070   16.7156 C.ar    1  UNL1        0.1660
     13 C          62.8513   87.9167   17.1070 C.ar    1  UNL1        0.0392
     14 C          63.3143   89.0603   16.2538 C.ar    1  UNL1        0.0033
     15 C          64.1083   88.7942   15.0094 C.ar    1  UNL1        0.0024
     16 C          64.4394   87.3846   14.6180 C.ar    1  UNL1        0.0328
     17 C          63.9764   86.2410   15.4711 C.ar    1  UNL1        0.1738
     18 F          64.3075   84.8313   15.0798 F       1  UNL1       -0.2010
     19 C          62.6099   83.9870   16.9828 C.3     1  UNL1        0.2526
     20 O          62.7194   85.3634   17.5688 O.3     1  UNL1       -0.4692
     21 C          66.2064   94.4069   10.5425 C.ar    1  UNL1        0.0087
     22 C          67.4075   94.2450    9.6587 C.ar    1  UNL1        0.0190
     23 C          67.8705   95.3886    8.8055 C.ar    1  UNL1        0.0986
     24 N          67.1323   96.6941    8.8361 N.ar    1  UNL1       -0.2423
     25 C          65.9312   96.8559    9.7200 C.ar    1  UNL1        0.0986
     26 C          65.4683   95.7124   10.5732 C.ar    1  UNL1        0.0190
@<TRIPOS>BOND
     1    19    20    1
     2    20    12    1
     3    12    13   ar
     4    13    14   ar
     5    14    15   ar
     6    15     1    1
     7     1     2   ar
     8     2     3   ar
     9     3     4   ar
    10     4     5   ar
    11     5     6   ar
    12     5     7    1
    13     7     8    1
    14     8     9    1
    15     9    10    1
    16     9    21    1
    17    21    22   ar
    18    22    23   ar
    19    23    24   ar
    20    24    25   ar
    21    25    26   ar
    22    15    16   ar
    23    16    17   ar
    24    17    18    1
    25    17    12   ar
    26     6     1   ar
    27    26    21   ar
    28     9     4    1
    29    10    11    1
@<TRIPOS>MOLECULE
*****
 26 29 0 0 0
SMALL
GASTEIGER

@<TRIPOS>ATOM
      1 C          64.2193   88.5846   13.4934 C.ar    1  UNL1       -0.0003
      2 C          63.3823   88.1193   12.3389 C.ar    1  UNL1       -0.0003
      3 C          62.9440   86.6870   12.2595 C.ar    1  UNL1       -0.0020
      4 C          63.3427   85.7200   13.3346 C.ar    1  UNL1        0.0016
      5 C          64.1797   86.1852   14.4891 C.ar    1  UNL1       -0.0236
      6 C          64.6180   87.6175   14.5685 C.ar    1  UNL1       -0.0045
      7 C          64.4165   85.0115   15.3926 C.3     1  UNL1        0.0292
      8 C          63.7259   83.8208   14.7965 C.3     1  UNL1        0.0401
      9 C          63.0622   84.2586   13.5245 C.3     1  UNL1        0.1257
     10 O          62.3070   84.3971   12.2360 O.3     1  UNL1       -0.3786
     11 H          61.9238   83.5400   11.9921 H       1  UNL1        0.2111
     12 C          65.5344   92.8816   13.7318 C.ar    1  UNL1        0.1660
     13 C          64.8777   92.3663   12.4855 C.ar    1  UNL1        0.0392
     14 C          64.4393   90.9339   12.4061 C.ar    1  UNL1        0.0033
     15 C          64.6577   90.0169   13.5729 C.ar    1  UNL1        0.0024
     16 C          65.3144   90.5322   14.8191 C.ar    1  UNL1        0.0328
     17 C          65.7527   91.9645   14.8986 C.ar    1  UNL1        0.1738
     18 F          66.4094   92.4798   16.1449 F       1  UNL1       -0.2010
     19 C          66.4084   95.0348   12.5702 C.3     1  UNL1        0.2526
     20 O          65.9727   94.3139   13.8113 O.3     1  UNL1       -0.4692
     21 C          62.6239   82.8263   13.4451 C.ar    1  UNL1        0.0087
     22 C          63.1777   81.9307   12.3769 C.ar    1  UNL1        0.0190
     23 C          62.7394   80.4983   12.2975 C.ar    1  UNL1        0.0986
     24 N          61.7473   79.9617   13.2863 N.ar    1  UNL1       -0.2423
     25 C          61.1935   80.8574   14.3545 C.ar    1  UNL1        0.0986
     26 C          61.6318   82.2897   14.4339 C.ar    1  UNL1        0.0190
@<TRIPOS>BOND
     1    19    20    1
     2    20    12    1
     3    12    13   ar
     4    13    14   ar
     5    14    15   ar
     6    15     1    1
     7     1     2   ar
     8     2     3   ar
     9     3     4   ar
    10     4     5   ar
    11     5     6   ar
    12     5     7    1
    13     7     8    1
    14     8     9    1
    15     9    10    1
    16     9    21    1
    17    21    22   ar
    18    22    23   ar
    19    23    24   ar
    20    24    25   ar
    21    25    26   ar
    22    15    16   ar
    23    16    17   ar
    24    17    18    1
    25    17    12   ar
    26     6     1   ar
    27    26    21   ar
    28     9     4    1
    29    10    11    1
@<TRIPOS>MOLECULE
*****
 26 29 0 0 0
SMALL
GASTEIGER

@<TRIPOS>ATOM
      1 C          64.1943   88.2692   13.6621 C.ar    1  UNL1       -0.0003
      2 C          64.5300   87.3938   14.8329 C.ar    1  UNL1       -0.0003
      3 C          64.1443   85.9444   14.8205 C.ar    1  UNL1       -0.0020
      4 C          63.4229   85.3703   13.6373 C.ar    1  UNL1        0.0016
      5 C          63.0872   86.2457   12.4665 C.ar    1  UNL1       -0.0236
      6 C          63.4729   87.6952   12.4789 C.ar    1  UNL1       -0.0045
      7 C          62.3755   85.4050   11.4482 C.3     1  UNL1        0.0292
      8 C          62.2714   84.0101   11.9898 C.3     1  UNL1        0.0401
      9 C          62.9187   83.9885   13.3427 C.3     1  UNL1        0.1257
     10 O          63.4854   83.6641   14.6930 O.3     1  UNL1       -0.3786
     11 H          63.3348   82.7263   14.8900 H       1  UNL1        0.2111
     12 C          65.3514   92.6178   13.6990 C.ar    1  UNL1        0.1660
     13 C          64.5847   92.0556   12.5388 C.ar    1  UNL1        0.0392
     14 C          64.1990   90.6060   12.5265 C.ar    1  UNL1        0.0033
     15 C          64.5800   89.7188   13.6744 C.ar    1  UNL1        0.0024
     16 C          65.3467   90.2810   14.8346 C.ar    1  UNL1        0.0328
     17 C          65.7324   91.7305   14.8469 C.ar    1  UNL1        0.1738
     18 F          66.4991   92.2927   16.0071 F       1  UNL1       -0.2010
     19 C          66.3918   94.6794   12.5087 C.3     1  UNL1        0.2526
     20 O          65.7371   94.0673   13.7114 O.3     1  UNL1       -0.4692
     21 C          62.5330   82.5391   13.3304 C.ar    1  UNL1        0.0087
     22 C          63.1587   81.6050   12.3374 C.ar    1  UNL1        0.0190
     23 C          62.7730   80.1554   12.3250 C.ar    1  UNL1        0.0986
     24 N          61.7616   79.6400   13.3056 N.ar    1  UNL1       -0.2423
     25 C          61.1359   80.5742   14.2985 C.ar    1  UNL1        0.0986
     26 C          61.5216   82.0237   14.3109 C.ar    1  UNL1        0.0190
@<TRIPOS>BOND
     1    19    20    1
     2    20    12    1
     3    12    13   ar
     4    13    14   ar
     5    14    15   ar
     6    15     1    1
     7     1     2   ar
     8     2     3   ar
     9     3     4   ar
    10     4     5   ar
    11     5     6   ar
    12     5     7    1
    13     7     8    1
    14     8     9    1
    15     9    10    1
    16     9    21    1
    17    21    22   ar
    18    22    23   ar
    19    23    24   ar
    20    24    25   ar
    21    25    26   ar
    22    15    16   ar
    23    16    17   ar
    24    17    18    1
    25    17    12   ar
    26     6     1   ar
    27    26    21   ar
    28     9     4    1
    29    10    11    1
@<TRIPOS>MOLECULE
*****
 26 29 0 0 0
SMALL
GASTEIGER

@<TRIPOS>ATOM
      1 C          64.8297   90.7647   13.2221 C.ar    1  UNL1       -0.0003
      2 C          64.3411   89.3930   13.5821 C.ar    1  UNL1       -0.0003
      3 C          63.3698   88.6837   12.6858 C.ar    1  UNL1       -0.0020
      4 C          62.8870   89.3461   11.4295 C.ar    1  UNL1        0.0016
      5 C          63.3757   90.7178   11.0695 C.ar    1  UNL1       -0.0236
      6 C          64.3470   91.4271   11.9658 C.ar    1  UNL1       -0.0045
      7 C          62.7282   91.1159    9.7764 C.3     1  UNL1        0.0292
      8 C          61.8395   89.9902    9.3371 C.3     1  UNL1        0.0401
      9 C          61.9376   88.8964   10.3588 C.3     1  UNL1        0.1257
     10 O          61.8327   87.6543   11.1931 O.3     1  UNL1       -0.3786
     11 H          61.2213   87.0313   10.7700 H       1  UNL1        0.2111
     12 C          67.7438   92.8928   15.9109 C.ar    1  UNL1        0.1660
     13 C          66.3150   92.7260   16.3362 C.ar    1  UNL1        0.0392
     14 C          65.3437   92.0166   15.4399 C.ar    1  UNL1        0.0033
     15 C          65.8011   91.4740   14.1184 C.ar    1  UNL1        0.0024
     16 C          67.2298   91.6408   13.6931 C.ar    1  UNL1        0.0328
     17 C          68.2012   92.3501   14.5894 C.ar    1  UNL1        0.1738
     18 F          69.6299   92.5169   14.1641 F       1  UNL1       -0.2010
     19 C          69.4787   94.7878   16.2963 C.3     1  UNL1        0.2526
     20 O          68.7152   93.6021   16.8072 O.3     1  UNL1       -0.4692
     21 C          60.9663   88.1871    9.4625 C.ar    1  UNL1        0.0087
     22 C          61.0366   86.6964    9.3108 C.ar    1  UNL1        0.0190
     23 C          60.0652   85.9871    8.4145 C.ar    1  UNL1        0.0986
     24 N          59.0236   86.7684    7.6699 N.ar    1  UNL1       -0.2423
     25 C          58.9533   88.2591    7.8216 C.ar    1  UNL1        0.0986
     26 C          59.9246   88.9684    8.7179 C.ar    1  UNL1        0.0190
@<TRIPOS>BOND
     1    19    20    1
     2    20    12    1
     3    12    13   ar
     4    13    14   ar
     5    14    15   ar
     6    15     1    1
     7     1     2   ar
     8     2     3   ar
     9     3     4   ar
    10     4     5   ar
    11     5     6   ar
    12     5     7    1
    13     7     8    1
    14     8     9    1
    15     9    10    1
    16     9    21    1
    17    21    22   ar
    18    22    23   ar
    19    23    24   ar
    20    24    25   ar
    21    25    26   ar
    22    15    16   ar
    23    16    17   ar
    24    17    18    1
    25    17    12   ar
    26     6     1   ar
    27    26    21   ar
    28     9     4    1
    29    10    11    1
@<TRIPOS>MOLECULE
*****
 26 29 0 0 0
SMALL
GASTEIGER

@<TRIPOS>ATOM
      1 C          62.4878   87.8629   10.4089 C.ar    1  UNL1       -0.0003
      2 C          62.5337   89.3480   10.2032 C.ar    1  UNL1       -0.0003
      3 C          63.0621   90.2393   11.2877 C.ar    1  UNL1       -0.0020
      4 C          63.5447   89.6456   12.5779 C.ar    1  UNL1        0.0016
      5 C          63.4988   88.1605   12.7835 C.ar    1  UNL1       -0.0236
      6 C          62.9704   87.2691   11.6990 C.ar    1  UNL1       -0.0045
      7 C          64.0398   87.8650   14.1510 C.3     1  UNL1        0.0292
      8 C          64.4200   89.1676   14.7905 C.3     1  UNL1        0.0401
      9 C          64.1140   90.2680   13.8183 C.3     1  UNL1        0.1257
     10 O          63.9185   91.5548   13.0727 O.3     1  UNL1       -0.3786
     11 H          64.2128   92.2962   13.6246 H       1  UNL1        0.2111
     12 C          60.9025   85.1885    7.1553 C.ar    1  UNL1        0.1660
     13 C          59.9830   86.1461    7.8536 C.ar    1  UNL1        0.0392
     14 C          60.5115   87.0376    8.9381 C.ar    1  UNL1        0.0033
     15 C          61.9593   86.9714    9.3243 C.ar    1  UNL1        0.0024
     16 C          62.8788   86.0138    8.6261 C.ar    1  UNL1        0.0328
     17 C          62.3504   85.1224    7.5416 C.ar    1  UNL1        0.1738
     18 F          63.2699   84.1648    6.8434 F       1  UNL1       -0.2010
     19 C          61.2677   83.8809    4.9403 C.3     1  UNL1        0.2526
     20 O          60.3741   84.2971    6.0708 O.3     1  UNL1       -0.4692
     21 C          64.6425   91.1594   14.9028 C.ar    1  UNL1        0.0087
     22 C          63.8441   91.3714   16.1548 C.ar    1  UNL1        0.0190
     23 C          64.3725   92.2628   17.2394 C.ar    1  UNL1        0.0986
     24 N          65.6993   92.9421   17.0718 N.ar    1  UNL1       -0.2423
     25 C          66.4977   92.7301   15.8197 C.ar    1  UNL1        0.0986
     26 C          65.9693   91.8387   14.7352 C.ar    1  UNL1        0.0190
@<TRIPOS>BOND
     1    19    20    1
     2    20    12    1
     3    12    13   ar
     4    13    14   ar
     5    14    15   ar
     6    15     1    1
     7     1     2   ar
     8     2     3   ar
     9     3     4   ar
    10     4     5   ar
    11     5     6   ar
    12     5     7    1
    13     7     8    1
    14     8     9    1
    15     9    10    1
    16     9    21    1
    17    21    22   ar
    18    22    23   ar
    19    23    24   ar
    20    24    25   ar
    21    25    26   ar
    22    15    16   ar
    23    16    17   ar
    24    17    18    1
    25    17    12   ar
    26     6     1   ar
    27    26    21   ar
    28     9     4    1
    29    10    11    1
@<TRIPOS>MOLECULE
*****
 26 29 0 0 0
SMALL
GASTEIGER

@<TRIPOS>ATOM
      1 C          62.9035   89.6126   11.5301 C.ar    1  UNL1       -0.0003
      2 C          63.3136   89.0127   12.8423 C.ar    1  UNL1       -0.0003
      3 C          64.3610   89.6849   13.6795 C.ar    1  UNL1       -0.0020
      4 C          64.9983   90.9570   13.2046 C.ar    1  UNL1        0.0016
      5 C          64.5882   91.5570   11.8924 C.ar    1  UNL1       -0.0236
      6 C          63.5408   90.8848   11.0552 C.ar    1  UNL1       -0.0045
      7 C          65.3865   92.8099   11.6859 C.3     1  UNL1        0.0292
      8 C          66.2901   92.9844   12.8705 C.3     1  UNL1        0.0401
      9 C          66.0501   91.8393   13.8091 C.3     1  UNL1        0.1257
     10 O          66.0291   90.8346   14.9227 O.3     1  UNL1       -0.3786
     11 H          66.6681   91.0945   15.6047 H       1  UNL1        0.2111
     12 C          59.7611   87.5961    9.0181 C.ar    1  UNL1        0.1660
     13 C          60.4158   86.8493   10.1422 C.ar    1  UNL1        0.0392
     14 C          61.4632   87.5215   10.9796 C.ar    1  UNL1        0.0033
     15 C          61.8560   88.9404   10.6927 C.ar    1  UNL1        0.0024
     16 C          61.2014   89.6873    9.5686 C.ar    1  UNL1        0.0328
     17 C          60.1540   89.0151    8.7313 C.ar    1  UNL1        0.1738
     18 F          59.4993   89.7620    7.6071 F       1  UNL1       -0.2010
     19 C          59.1171   85.9423    7.1208 C.3     1  UNL1        0.2526
     20 O          58.7137   86.9240    8.1808 O.3     1  UNL1       -0.4692
     21 C          67.0975   92.5115   14.6464 C.ar    1  UNL1        0.0087
     22 C          67.2215   94.0062   14.6348 C.ar    1  UNL1        0.0190
     23 C          68.2689   94.6785   15.4721 C.ar    1  UNL1        0.0986
     24 N          69.1924   93.8559   16.3210 N.ar    1  UNL1       -0.2423
     25 C          69.0684   92.3610   16.3325 C.ar    1  UNL1        0.0986
     26 C          68.0210   91.6889   15.4952 C.ar    1  UNL1        0.0190
@<TRIPOS>BOND
     1    19    20    1
     2    20    12    1
     3    12    13   ar
     4    13    14   ar
     5    14    15   ar
     6    15     1    1
     7     1     2   ar
     8     2     3   ar
     9     3     4   ar
    10     4     5   ar
    11     5     6   ar
    12     5     7    1
    13     7     8    1
    14     8     9    1
    15     9    10    1
    16     9    21    1
    17    21    22   ar
    18    22    23   ar
    19    23    24   ar
    20    24    25   ar
    21    25    26   ar
    22    15    16   ar
    23    16    17   ar
    24    17    18    1
    25    17    12   ar
    26     6     1   ar
    27    26    21   ar
    28     9     4    1
    29    10    11    1
@<TRIPOS>MOLECULE
*****
 26 29 0 0 0
SMALL
GASTEIGER

@<TRIPOS>ATOM
      1 C          63.1604   83.4829   12.2242 C.ar    1  UNL1       -0.0003
      2 C          62.5708   84.5615   11.3647 C.ar    1  UNL1       -0.0003
      3 C          62.7290   86.0014   11.7543 C.ar    1  UNL1       -0.0020
      4 C          63.4769   86.3625   13.0034 C.ar    1  UNL1        0.0016
      5 C          64.0665   85.2839   13.8629 C.ar    1  UNL1       -0.0236
      6 C          63.9083   83.8440   13.4733 C.ar    1  UNL1       -0.0045
      7 C          64.7462   85.9395   15.0283 C.3     1  UNL1        0.0292
      8 C          64.5767   87.4234   14.8891 C.3     1  UNL1        0.0401
      9 C          63.7922   87.6849   13.6376 C.3     1  UNL1        0.1257
     10 O          63.0408   88.2473   12.4676 O.3     1  UNL1       -0.3786
     11 H          63.0239   89.2152   12.5292 H       1  UNL1        0.2111
     12 C          62.6858   79.1632   11.0555 C.ar    1  UNL1        0.1660
     13 C          63.0618   80.1829   10.0217 C.ar    1  UNL1        0.0392
     14 C          63.2200   81.6228   10.4113 C.ar    1  UNL1        0.0033
     15 C          63.0022   82.0430   11.8346 C.ar    1  UNL1        0.0024
     16 C          62.6262   81.0233   12.8685 C.ar    1  UNL1        0.0328
     17 C          62.4680   79.5834   12.4789 C.ar    1  UNL1        0.1738
     18 F          62.0920   78.5637   13.5128 F       1  UNL1       -0.2010
     19 C          63.6663   76.9919   10.0193 C.3     1  UNL1        0.2526
     20 O          62.5276   77.7234   10.6660 O.3     1  UNL1       -0.4692
     21 C          63.9504   89.1247   14.0272 C.ar    1  UNL1        0.0087
     22 C          64.2631   90.1543   12.9823 C.ar    1  UNL1        0.0190
     23 C          64.4214   91.5942   13.3719 C.ar    1  UNL1        0.0986
     24 N          64.2669   92.0044   14.8064 N.ar    1  UNL1       -0.2423
     25 C          63.9541   90.9746   15.8514 C.ar    1  UNL1        0.0986
     26 C          63.7959   89.5348   15.4618 C.ar    1  UNL1        0.0190
@<TRIPOS>BOND
     1    19    20    1
     2    20    12    1
     3    12    13   ar
     4    13    14   ar
     5    14    15   ar
     6    15     1    1
     7     1     2   ar
     8     2     3   ar
     9     3     4   ar
    10     4     5   ar
    11     5     6   ar
    12     5     7    1
    13     7     8    1
    14     8     9    1
    15     9    10    1
    16     9    21    1
    17    21    22   ar
    18    22    23   ar
    19    23    24   ar
    20    24    25   ar
    21    25    26   ar
    22    15    16   ar
    23    16    17   ar
    24    17    18    1
    25    17    12   ar
    26     6     1   ar
    27    26    21   ar
    28     9     4    1
    29    10    11    1
