@<TRIPOS>MOLECULE
*****
 32 36 0 0 0
SMALL
GASTEIGER

@<TRIPOS>ATOM
      1 C          65.6925   91.4361   13.5848 C.2     1  UNL1        0.2685
      2 O          66.7063   90.9932   14.5976 O.2     1  UNL1       -0.2682
      3 N          64.3671   90.7394   13.4962 N.am    1  UNL1       -0.2723
      4 C          64.0555   89.6000   14.4205 C.3     1  UNL1        0.0761
      5 C          64.3806   88.1554   14.1802 C.3     1  UNL1        0.0213
      6 C          63.8901   87.3676   15.3586 C.3     1  UNL1        0.0188
      7 C          63.7879   85.9879   15.9384 C.3     1  UNL1        0.0686
      8 N          63.0965   86.0929   17.2654 N.3     1  UNL1       -0.2975
      9 C          62.7713   87.5373   17.5057 C.3     1  UNL1        0.0686
     10 C          63.2618   88.3252   16.3273 C.3     1  UNL1        0.0188
     11 C          63.3640   89.7048   15.7476 C.3     1  UNL1        0.0213
     12 H          63.7103   85.7487   18.0037 H       1  UNL1        0.1232
     13 C          67.1300   94.1898    9.3150 C.3     1  UNL1        0.1321
     14 N          66.6649   93.8414   10.6978 N.ar    1  UNL1       -0.3057
     15 C          66.3026   94.8168   11.7781 C.ar    1  UNL1        0.1787
     16 N          65.8942   94.0345   12.9911 N.ar    1  UNL1       -0.2192
     17 C          66.0041   92.5756   12.6604 C.ar    1  UNL1        0.1535
     18 C          66.4805   92.4562   11.2431 C.ar    1  UNL1        0.1012
     19 C          63.3532   91.1823   12.4833 C.3     1  UNL1        0.1205
     20 C          62.3818   90.1923   11.9121 C.ar    1  UNL1        0.0008
     21 C          60.9158   90.3288   12.1990 C.ar    1  UNL1       -0.0001
     22 C          59.9444   89.3387   11.6278 C.ar    1  UNL1        0.0325
     23 C          60.4392   88.2122   10.7697 C.ar    1  UNL1        0.1738
     24 F          59.4678   87.2221   10.1985 F       1  UNL1       -0.2010
     25 C          61.9051   88.0758   10.4828 C.ar    1  UNL1        0.1653
     26 C          62.8764   89.0658   11.0540 C.ar    1  UNL1        0.0366
     27 O          62.3997   86.9493    9.6247 O.3     1  UNL1       -0.4769
     28 C          62.7022   85.6150   10.2397 C.3     1  UNL1        0.1660
     29 C          62.3575   85.1893   11.6362 C.3     1  UNL1        0.0435
     30 C          62.8446   83.7834   11.8258 C.3     1  UNL1        0.0038
     31 C          63.4904   83.3401   10.5465 C.3     1  UNL1        0.0038
     32 C          63.4023   84.4721    9.5663 C.3     1  UNL1        0.0435
@<TRIPOS>BOND
     1    13    14    1
     2    14    15   ar
     3    15    16   ar
     4    16    17   ar
     5    17     1    1
     6     1     2    2
     7     1     3   am
     8     3    19    1
     9    19    20    1
    10    20    21   ar
    11    21    22   ar
    12    22    23   ar
    13    23    24    1
    14    23    25   ar
    15    25    27    1
    16    27    28    1
    17    28    29    1
    18    29    30    1
    19    30    31    1
    20    31    32    1
    21    25    26   ar
    22     4     3    1
    23     4     5    1
    24     6     5    1
    25     6     7    1
    26     7     8    1
    27     8     9    1
    28    10     9    1
    29    10    11    1
    30    17    18   ar
    31    18    14   ar
    32    26    20   ar
    33    11     4    1
    34    32    28    1
    35    10     6    1
    36     8    12    1
@<TRIPOS>MOLECULE
*****
 32 36 0 0 0
SMALL
GASTEIGER

@<TRIPOS>ATOM
      1 C          65.0370   91.6388   12.4230 C.2     1  UNL1        0.2685
      2 O          65.2502   91.7344   10.9413 O.2     1  UNL1       -0.2682
      3 N          63.8849   90.8460   12.9653 N.am    1  UNL1       -0.2723
      4 C          62.9460   90.1489   12.0260 C.3     1  UNL1        0.0761
      5 C          62.8758   88.6699   11.7858 C.3     1  UNL1        0.0213
      6 C          61.7988   88.4153   10.7732 C.3     1  UNL1        0.0188
      7 C          61.0898   87.3439    9.9990 C.3     1  UNL1        0.0686
      8 N          60.0562   88.0034    9.1349 N.3     1  UNL1       -0.2975
      9 C          60.1263   89.4824    9.3750 C.3     1  UNL1        0.0686
     10 C          61.2033   89.7370   10.3876 C.3     1  UNL1        0.0188
     11 C          61.9123   90.8084   11.1618 C.3     1  UNL1        0.0213
     12 H          59.1285   87.6567    9.3791 H       1  UNL1        0.1232
     13 C          68.8370   92.5361   15.9776 C.3     1  UNL1        0.1321
     14 N          67.7226   92.7484   14.9962 N.ar    1  UNL1       -0.3057
     15 C          67.1193   94.0689   14.6194 C.ar    1  UNL1        0.1787
     16 N          66.0398   93.8140   13.6096 N.ar    1  UNL1       -0.2192
     17 C          65.9760   92.3359   13.3623 C.ar    1  UNL1        0.1535
     18 C          67.0161   91.6773   14.2193 C.ar    1  UNL1        0.1012
     19 C          63.6717   90.7505   14.4470 C.3     1  UNL1        0.1205
     20 C          63.6577   89.4088   15.1177 C.ar    1  UNL1        0.0008
     21 C          62.9814   89.2414   16.4461 C.ar    1  UNL1       -0.0001
     22 C          62.9674   87.8996   17.1167 C.ar    1  UNL1        0.0325
     23 C          63.6298   86.7255   16.4589 C.ar    1  UNL1        0.1738
     24 F          63.6158   85.3838   17.1295 F       1  UNL1       -0.2010
     25 C          64.3060   86.8930   15.1306 C.ar    1  UNL1        0.1653
     26 C          64.3200   88.2347   14.4599 C.ar    1  UNL1        0.0366
     27 O          64.9683   85.7188   14.4727 O.3     1  UNL1       -0.4769
     28 C          64.1665   84.7944   13.6053 C.3     1  UNL1        0.1660
     29 C          64.2671   83.2979   13.5824 C.3     1  UNL1        0.0435
     30 C          63.2860   82.7828   12.5714 C.3     1  UNL1        0.0038
     31 C          62.5790   83.9608   11.9696 C.3     1  UNL1        0.0038
     32 C          63.1231   85.2041   12.6086 C.3     1  UNL1        0.0435
@<TRIPOS>BOND
     1    13    14    1
     2    14    15   ar
     3    15    16   ar
     4    16    17   ar
     5    17     1    1
     6     1     2    2
     7     1     3   am
     8     3    19    1
     9    19    20    1
    10    20    21   ar
    11    21    22   ar
    12    22    23   ar
    13    23    24    1
    14    23    25   ar
    15    25    27    1
    16    27    28    1
    17    28    29    1
    18    29    30    1
    19    30    31    1
    20    31    32    1
    21    25    26   ar
    22     4     3    1
    23     4     5    1
    24     6     5    1
    25     6     7    1
    26     7     8    1
    27     8     9    1
    28    10     9    1
    29    10    11    1
    30    17    18   ar
    31    18    14   ar
    32    26    20   ar
    33    11     4    1
    34    32    28    1
    35    10     6    1
    36     8    12    1
@<TRIPOS>MOLECULE
*****
 32 36 0 0 0
SMALL
GASTEIGER

@<TRIPOS>ATOM
      1 C          65.3854   91.0162   13.9852 C.2     1  UNL1        0.2685
      2 O          66.8525   91.2216   14.2209 O.2     1  UNL1       -0.2682
      3 N          64.7115   91.6852   12.8241 N.am    1  UNL1       -0.2723
      4 C          65.5046   92.5595   11.8987 C.3     1  UNL1        0.0761
      5 C          66.3067   92.0960   10.7189 C.3     1  UNL1        0.0213
      6 C          66.9327   93.3010   10.0816 C.3     1  UNL1        0.0188
      7 C          67.8153   93.7591    8.9586 C.3     1  UNL1        0.0686
      8 N          67.9455   95.2506    9.0505 N.3     1  UNL1       -0.2975
      9 C          67.1435   95.7143   10.2302 C.3     1  UNL1        0.0686
     10 C          66.5175   94.5093   10.8675 C.3     1  UNL1        0.0188
     11 C          65.6349   94.0511   11.9905 C.3     1  UNL1        0.0213
     12 H          67.5887   95.6824    8.1981 H       1  UNL1        0.1232
     13 C          63.3057   86.7638   16.3244 C.3     1  UNL1        0.1321
     14 N          63.6364   88.1872   15.9859 N.ar    1  UNL1       -0.3057
     15 C          63.1077   89.4051   16.6836 C.ar    1  UNL1        0.1787
     16 N          63.6985   90.6132   16.0191 N.ar    1  UNL1       -0.2192
     17 C          64.5924   90.1418   14.9107 C.ar    1  UNL1        0.1535
     18 C          64.5541   88.6424   14.8902 C.ar    1  UNL1        0.1012
     19 C          63.2444   91.4798   12.5884 C.3     1  UNL1        0.1205
     20 C          62.7782   90.3952   11.6631 C.ar    1  UNL1        0.0008
     21 C          62.7212   90.6436   10.1849 C.ar    1  UNL1       -0.0001
     22 C          62.2549   89.5589    9.2595 C.ar    1  UNL1        0.0325
     23 C          61.8457   88.2260    9.8125 C.ar    1  UNL1        0.1738
     24 F          61.3795   87.1413    8.8871 F       1  UNL1       -0.2010
     25 C          61.9028   87.9776   11.2906 C.ar    1  UNL1        0.1653
     26 C          62.3690   89.0622   12.2159 C.ar    1  UNL1        0.0366
     27 O          61.4935   86.6446   11.8435 O.3     1  UNL1       -0.4769
     28 C          62.4506   85.4903   11.8034 C.3     1  UNL1        0.1660
     29 C          62.7341   84.6208   10.6143 C.3     1  UNL1        0.0435
     30 C          63.7509   83.5959   11.0214 C.3     1  UNL1        0.0038
     31 C          64.0958   83.8319   12.4619 C.3     1  UNL1        0.0038
     32 C          63.2922   85.0026   12.9453 C.3     1  UNL1        0.0435
@<TRIPOS>BOND
     1    13    14    1
     2    14    15   ar
     3    15    16   ar
     4    16    17   ar
     5    17     1    1
     6     1     2    2
     7     1     3   am
     8     3    19    1
     9    19    20    1
    10    20    21   ar
    11    21    22   ar
    12    22    23   ar
    13    23    24    1
    14    23    25   ar
    15    25    27    1
    16    27    28    1
    17    28    29    1
    18    29    30    1
    19    30    31    1
    20    31    32    1
    21    25    26   ar
    22     4     3    1
    23     4     5    1
    24     6     5    1
    25     6     7    1
    26     7     8    1
    27     8     9    1
    28    10     9    1
    29    10    11    1
    30    17    18   ar
    31    18    14   ar
    32    26    20   ar
    33    11     4    1
    34    32    28    1
    35    10     6    1
    36     8    12    1
@<TRIPOS>MOLECULE
*****
 32 36 0 0 0
SMALL
GASTEIGER

@<TRIPOS>ATOM
      1 C          62.9084   84.5217   14.4608 C.2     1  UNL1        0.2685
      2 O          62.5720   85.2198   15.7451 O.2     1  UNL1       -0.2682
      3 N          63.4498   85.3043   13.3013 N.am    1  UNL1       -0.2723
      4 C          63.6548   86.7849   13.4262 C.3     1  UNL1        0.0761
      5 C          63.1627   87.8272   12.4662 C.3     1  UNL1        0.0213
      6 C          63.5917   89.1698   12.9796 C.3     1  UNL1        0.0188
      7 C          63.5526   90.6436   12.7036 C.3     1  UNL1        0.0686
      8 N          64.2857   91.3420   13.8103 N.3     1  UNL1       -0.2975
      9 C          64.7778   90.2997   14.7703 C.3     1  UNL1        0.0686
     10 C          64.3489   88.9572   14.2569 C.3     1  UNL1        0.0188
     11 C          64.3879   87.4834   14.5329 C.3     1  UNL1        0.0213
     12 H          63.6563   91.9852   14.2904 H       1  UNL1        0.1232
     13 C          60.6055   79.7868   14.0637 C.3     1  UNL1        0.1321
     14 N          61.6449   80.8646   14.1535 N.ar    1  UNL1       -0.3057
     15 C          63.1307   80.6604   14.1346 C.ar    1  UNL1        0.1787
     16 N          63.7849   82.0055   14.2475 N.ar    1  UNL1       -0.2192
     17 C          62.7034   83.0410   14.3361 C.ar    1  UNL1        0.1535
     18 C          61.3807   82.3359   14.2780 C.ar    1  UNL1        0.1012
     19 C          63.7862   84.6061   12.0170 C.3     1  UNL1        0.1205
     20 C          63.0530   84.9595   10.7570 C.ar    1  UNL1        0.0008
     21 C          63.5578   84.4682    9.4327 C.ar    1  UNL1       -0.0001
     22 C          62.8246   84.8216    8.1726 C.ar    1  UNL1        0.0325
     23 C          61.5866   85.6662    8.2371 C.ar    1  UNL1        0.1738
     24 F          60.8534   86.0196    6.9771 F       1  UNL1       -0.2010
     25 C          61.0819   86.1574    9.5614 C.ar    1  UNL1        0.1653
     26 C          61.8151   85.8041   10.8214 C.ar    1  UNL1        0.0366
     27 O          59.8440   87.0021    9.6258 O.3     1  UNL1       -0.4769
     28 C          59.8724   88.3212   10.3394 C.3     1  UNL1        0.1660
     29 C          60.3635   89.6201    9.7722 C.3     1  UNL1        0.0435
     30 C          60.2094   90.6746   10.8277 C.3     1  UNL1        0.0038
     31 C          59.6231   90.0275   12.0473 C.3     1  UNL1        0.0038
     32 C          59.4148   88.5730   11.7455 C.3     1  UNL1        0.0435
@<TRIPOS>BOND
     1    13    14    1
     2    14    15   ar
     3    15    16   ar
     4    16    17   ar
     5    17     1    1
     6     1     2    2
     7     1     3   am
     8     3    19    1
     9    19    20    1
    10    20    21   ar
    11    21    22   ar
    12    22    23   ar
    13    23    24    1
    14    23    25   ar
    15    25    27    1
    16    27    28    1
    17    28    29    1
    18    29    30    1
    19    30    31    1
    20    31    32    1
    21    25    26   ar
    22     4     3    1
    23     4     5    1
    24     6     5    1
    25     6     7    1
    26     7     8    1
    27     8     9    1
    28    10     9    1
    29    10    11    1
    30    17    18   ar
    31    18    14   ar
    32    26    20   ar
    33    11     4    1
    34    32    28    1
    35    10     6    1
    36     8    12    1
@<TRIPOS>MOLECULE
*****
 32 36 0 0 0
SMALL
GASTEIGER

@<TRIPOS>ATOM
      1 C          63.5014   90.8582   11.5455 C.2     1  UNL1        0.2685
      2 O          64.3182   91.8938   10.8310 O.2     1  UNL1       -0.2682
      3 N          63.8587   90.4560   12.9456 N.am    1  UNL1       -0.2723
      4 C          65.0328   91.0894   13.6314 C.3     1  UNL1        0.0761
      5 C          66.3368   91.4573   12.9876 C.3     1  UNL1        0.0213
      6 C          67.2190   92.0613   14.0397 C.3     1  UNL1        0.0188
      7 C          68.5702   92.6620   14.2920 C.3     1  UNL1        0.0686
      8 N          68.6465   93.0386   15.7419 N.3     1  UNL1       -0.2975
      9 C          67.3426   92.6707   16.3857 C.3     1  UNL1        0.0686
     10 C          66.4603   92.0667   15.3336 C.3     1  UNL1        0.0188
     11 C          65.1092   91.4660   15.0814 C.3     1  UNL1        0.0213
     12 H          68.8055   94.0422   15.8309 H       1  UNL1        0.1232
     13 C          60.5390   87.5507    8.6880 C.3     1  UNL1        0.1321
     14 N          60.9656   88.7046    9.5462 N.ar    1  UNL1       -0.3057
     15 C          60.0754   89.7959   10.0624 C.ar    1  UNL1        0.1787
     16 N          60.9170   90.7356   10.8741 N.ar    1  UNL1       -0.2192
     17 C          62.3272   90.2249   10.8597 C.ar    1  UNL1        0.1535
     18 C          62.3573   88.9697   10.0390 C.ar    1  UNL1        0.1012
     19 C          63.0419   89.4204   13.6601 C.3     1  UNL1        0.1205
     20 C          63.5788   88.0307   13.8341 C.ar    1  UNL1        0.0008
     21 C          64.5577   87.7369   14.9320 C.ar    1  UNL1       -0.0001
     22 C          65.0947   86.3470   15.1060 C.ar    1  UNL1        0.0325
     23 C          64.6527   85.2512   14.1820 C.ar    1  UNL1        0.1738
     24 F          65.1897   83.8614   14.3560 F       1  UNL1       -0.2010
     25 C          63.6738   85.5450   13.0841 C.ar    1  UNL1        0.1653
     26 C          63.1369   86.9348   12.9101 C.ar    1  UNL1        0.0366
     27 O          63.2318   84.4491   12.1601 O.3     1  UNL1       -0.4769
     28 C          62.7882   83.1300   12.7195 C.3     1  UNL1        0.1660
     29 C          62.1176   82.9145   14.0440 C.3     1  UNL1        0.0435
     30 C          61.8522   81.4460   14.1957 C.3     1  UNL1        0.0038
     31 C          62.3587   80.7539   12.9651 C.3     1  UNL1        0.0038
     32 C          62.9371   81.7946   12.0528 C.3     1  UNL1        0.0435
@<TRIPOS>BOND
     1    13    14    1
     2    14    15   ar
     3    15    16   ar
     4    16    17   ar
     5    17     1    1
     6     1     2    2
     7     1     3   am
     8     3    19    1
     9    19    20    1
    10    20    21   ar
    11    21    22   ar
    12    22    23   ar
    13    23    24    1
    14    23    25   ar
    15    25    27    1
    16    27    28    1
    17    28    29    1
    18    29    30    1
    19    30    31    1
    20    31    32    1
    21    25    26   ar
    22     4     3    1
    23     4     5    1
    24     6     5    1
    25     6     7    1
    26     7     8    1
    27     8     9    1
    28    10     9    1
    29    10    11    1
    30    17    18   ar
    31    18    14   ar
    32    26    20   ar
    33    11     4    1
    34    32    28    1
    35    10     6    1
    36     8    12    1
@<TRIPOS>MOLECULE
*****
 32 36 0 0 0
SMALL
GASTEIGER

@<TRIPOS>ATOM
      1 C          63.5063   90.6553   11.1044 C.2     1  UNL1        0.2685
      2 O          63.3886   91.0980    9.6761 O.2     1  UNL1       -0.2682
      3 N          62.7770   89.4311   11.5727 N.am    1  UNL1       -0.2723
      4 C          61.9299   88.6496   10.6128 C.3     1  UNL1        0.0761
      5 C          60.4646   88.8519   10.3634 C.3     1  UNL1        0.0213
      6 C          60.0284   87.8558    9.3301 C.3     1  UNL1        0.0188
      7 C          58.8533   87.3653    8.5374 C.3     1  UNL1        0.0686
      8 N          59.3227   86.2442    7.6583 N.3     1  UNL1       -0.2975
      9 C          60.7879   86.0419    7.9076 C.3     1  UNL1        0.0686
     10 C          61.2241   87.0379    8.9409 C.3     1  UNL1        0.0188
     11 C          62.3993   87.5285    9.7336 C.3     1  UNL1        0.0213
     12 H          59.1682   86.4843    6.6790 H       1  UNL1        0.1232
     13 C          65.8514   92.3057   15.5381 C.3     1  UNL1        0.1321
     14 N          65.4314   92.1955   14.1023 N.ar    1  UNL1       -0.3057
     15 C          65.8827   93.0836   12.9810 C.ar    1  UNL1        0.1787
     16 N          65.2165   92.6147   11.7215 N.ar    1  UNL1       -0.2192
     17 C          64.3535   91.4369   12.0644 C.ar    1  UNL1        0.1535
     18 C          64.4862   91.1777   13.5358 C.ar    1  UNL1        0.1012
     19 C          62.8948   88.9885   13.0012 C.3     1  UNL1        0.1205
     20 C          63.4493   87.6323   13.3227 C.ar    1  UNL1        0.0008
     21 C          64.3962   87.4628   14.4736 C.ar    1  UNL1       -0.0001
     22 C          64.9508   86.1066   14.7952 C.ar    1  UNL1        0.0325
     23 C          64.5582   84.9200   13.9657 C.ar    1  UNL1        0.1738
     24 F          65.1127   83.5638   14.2873 F       1  UNL1       -0.2010
     25 C          63.6113   85.0895   12.8149 C.ar    1  UNL1        0.1653
     26 C          63.0568   86.4457   12.4934 C.ar    1  UNL1        0.0366
     27 O          63.2188   83.9029   11.9855 O.3     1  UNL1       -0.4769
     28 C          62.7389   82.6477   12.6521 C.3     1  UNL1        0.1660
     29 C          62.0034   82.5683   13.9571 C.3     1  UNL1        0.0435
     30 C          61.7201   81.1232   14.2423 C.3     1  UNL1        0.0038
     31 C          62.2805   80.3095   13.1136 C.3     1  UNL1        0.0038
     32 C          62.9101   81.2517   12.1309 C.3     1  UNL1        0.0435
@<TRIPOS>BOND
     1    13    14    1
     2    14    15   ar
     3    15    16   ar
     4    16    17   ar
     5    17     1    1
     6     1     2    2
     7     1     3   am
     8     3    19    1
     9    19    20    1
    10    20    21   ar
    11    21    22   ar
    12    22    23   ar
    13    23    24    1
    14    23    25   ar
    15    25    27    1
    16    27    28    1
    17    28    29    1
    18    29    30    1
    19    30    31    1
    20    31    32    1
    21    25    26   ar
    22     4     3    1
    23     4     5    1
    24     6     5    1
    25     6     7    1
    26     7     8    1
    27     8     9    1
    28    10     9    1
    29    10    11    1
    30    17    18   ar
    31    18    14   ar
    32    26    20   ar
    33    11     4    1
    34    32    28    1
    35    10     6    1
    36     8    12    1
@<TRIPOS>MOLECULE
*****
 32 36 0 0 0
SMALL
GASTEIGER

@<TRIPOS>ATOM
      1 C          63.6636   87.4031   15.5960 C.2     1  UNL1        0.2685
      2 O          63.3305   86.6242   16.8339 O.2     1  UNL1       -0.2682
      3 N          63.7633   86.7027   14.2733 N.am    1  UNL1       -0.2723
      4 C          63.5298   85.2235   14.1885 C.3     1  UNL1        0.0761
      5 C          62.2521   84.5120   14.5222 C.3     1  UNL1        0.0213
      6 C          62.4657   83.0447   14.2950 C.3     1  UNL1        0.0188
      7 C          61.8080   81.6982   14.3608 C.3     1  UNL1        0.0686
      8 N          62.8111   80.6708   13.9273 N.3     1  UNL1       -0.2975
      9 C          64.0888   81.3822   13.5935 C.3     1  UNL1        0.0686
     10 C          63.8753   82.8495   13.8208 C.3     1  UNL1        0.0188
     11 C          64.5330   84.1960   13.7549 C.3     1  UNL1        0.0213
     12 H          62.4660   80.1753   13.1053 H       1  UNL1        0.1232
     13 C          65.6836   92.2205   14.8260 C.3     1  UNL1        0.1321
     14 N          64.8256   91.0967   15.3270 N.ar    1  UNL1       -0.3057
     15 C          63.6874   91.2208   16.2960 C.ar    1  UNL1        0.1787
     16 N          63.1136   89.8523   16.5148 N.ar    1  UNL1       -0.2192
     17 C          63.8971   88.8824   15.6809 C.ar    1  UNL1        0.1535
     18 C          64.9552   89.6515   14.9468 C.ar    1  UNL1        0.1012
     19 C          64.0964   87.4817   13.0354 C.3     1  UNL1        0.1205
     20 C          62.9969   88.0566   12.1925 C.ar    1  UNL1        0.0008
     21 C          62.6741   89.5190   12.2762 C.ar    1  UNL1       -0.0001
     22 C          61.5745   90.0939   11.4332 C.ar    1  UNL1        0.0325
     23 C          60.7978   89.2061   10.5066 C.ar    1  UNL1        0.1738
     24 F          59.6982   89.7809    9.6636 F       1  UNL1       -0.2010
     25 C          61.1206   87.7437   10.4229 C.ar    1  UNL1        0.1653
     26 C          62.2201   87.1689   11.2658 C.ar    1  UNL1        0.0366
     27 O          60.3438   86.8560    9.4962 O.3     1  UNL1       -0.4769
     28 C          61.0619   86.0378    8.4642 C.3     1  UNL1        0.1660
     29 C          60.4513   85.4412    7.2308 C.3     1  UNL1        0.0435
     30 C          61.5286   84.7072    6.4887 C.3     1  UNL1        0.0038
     31 C          62.8050   84.8501    7.2636 C.3     1  UNL1        0.0038
     32 C          62.5166   85.6725    8.4845 C.3     1  UNL1        0.0435
@<TRIPOS>BOND
     1    13    14    1
     2    14    15   ar
     3    15    16   ar
     4    16    17   ar
     5    17     1    1
     6     1     2    2
     7     1     3   am
     8     3    19    1
     9    19    20    1
    10    20    21   ar
    11    21    22   ar
    12    22    23   ar
    13    23    24    1
    14    23    25   ar
    15    25    27    1
    16    27    28    1
    17    28    29    1
    18    29    30    1
    19    30    31    1
    20    31    32    1
    21    25    26   ar
    22     4     3    1
    23     4     5    1
    24     6     5    1
    25     6     7    1
    26     7     8    1
    27     8     9    1
    28    10     9    1
    29    10    11    1
    30    17    18   ar
    31    18    14   ar
    32    26    20   ar
    33    11     4    1
    34    32    28    1
    35    10     6    1
    36     8    12    1
@<TRIPOS>MOLECULE
*****
 32 36 0 0 0
SMALL
GASTEIGER

@<TRIPOS>ATOM
      1 C          63.2810   90.8142   12.4063 C.2     1  UNL1        0.2685
      2 O          63.3008   92.3058   12.2486 O.2     1  UNL1       -0.2682
      3 N          64.3448   90.1312   13.2136 N.am    1  UNL1       -0.2723
      4 C          65.4284   90.9396   13.8631 C.3     1  UNL1        0.0761
      5 C          66.7555   91.2851   13.2551 C.3     1  UNL1        0.0213
      6 C          67.5226   92.1036   14.2510 C.3     1  UNL1        0.0188
      7 C          68.8169   92.8229   14.4906 C.3     1  UNL1        0.0686
      8 N          68.7638   93.4278   15.8622 N.3     1  UNL1       -0.2975
      9 C          67.4368   93.0823   16.4703 C.3     1  UNL1        0.0686
     10 C          66.6697   92.2639   15.4744 C.3     1  UNL1        0.0188
     11 C          65.3755   91.5445   15.2348 C.3     1  UNL1        0.0213
     12 H          68.8617   94.4410   15.7977 H       1  UNL1        0.1232
     13 C          60.5409   88.0148    8.8658 C.3     1  UNL1        0.1321
     14 N          60.9377   88.7191   10.1293 N.ar    1  UNL1       -0.3057
     15 C          60.1214   88.8046   11.3847 C.ar    1  UNL1        0.1787
     16 N          60.8998   89.5998   12.3905 N.ar    1  UNL1       -0.2192
     17 C          62.1972   90.0058   11.7567 C.ar    1  UNL1        0.1535
     18 C          62.2207   89.4615   10.3592 C.ar    1  UNL1        0.1012
     19 C          64.3248   88.6396   13.3713 C.3     1  UNL1        0.1205
     20 C          63.8955   88.0287   14.6722 C.ar    1  UNL1        0.0008
     21 C          63.4514   88.9080   15.8034 C.ar    1  UNL1       -0.0001
     22 C          63.0221   88.2971   17.1044 C.ar    1  UNL1        0.0325
     23 C          63.0369   86.8068   17.2740 C.ar    1  UNL1        0.1738
     24 F          62.6075   86.1958   18.5750 F       1  UNL1       -0.2010
     25 C          63.4809   85.9275   16.1429 C.ar    1  UNL1        0.1653
     26 C          63.9102   86.5384   14.8420 C.ar    1  UNL1        0.0366
     27 O          63.4957   84.4371   16.3127 O.3     1  UNL1       -0.4769
     28 C          63.4031   83.5445   15.1107 C.3     1  UNL1        0.1660
     29 C          64.4917   83.3001   14.1080 C.3     1  UNL1        0.0435
     30 C          63.9671   82.3442   13.0780 C.3     1  UNL1        0.0038
     31 C          62.5543   81.9978   13.4441 C.3     1  UNL1        0.0038
     32 C          62.2057   82.7396   14.7004 C.3     1  UNL1        0.0435
@<TRIPOS>BOND
     1    13    14    1
     2    14    15   ar
     3    15    16   ar
     4    16    17   ar
     5    17     1    1
     6     1     2    2
     7     1     3   am
     8     3    19    1
     9    19    20    1
    10    20    21   ar
    11    21    22   ar
    12    22    23   ar
    13    23    24    1
    14    23    25   ar
    15    25    27    1
    16    27    28    1
    17    28    29    1
    18    29    30    1
    19    30    31    1
    20    31    32    1
    21    25    26   ar
    22     4     3    1
    23     4     5    1
    24     6     5    1
    25     6     7    1
    26     7     8    1
    27     8     9    1
    28    10     9    1
    29    10    11    1
    30    17    18   ar
    31    18    14   ar
    32    26    20   ar
    33    11     4    1
    34    32    28    1
    35    10     6    1
    36     8    12    1
