@<TRIPOS>MOLECULE
*****
 35 38 0 0 0
SMALL
GASTEIGER

@<TRIPOS>ATOM
      1 N          64.6245   91.5357   12.8876 N.3     1  UNL1       -0.1450
      2 S          65.3866   92.4950   12.0222 S.O2    1  UNL1        0.0654
      3 O          65.8875   93.2018   13.2468 O.2     1  UNL1       -0.1527
      4 O          64.8857   91.7882   10.7976 O.2     1  UNL1       -0.1527
      5 C          66.1487   93.4543   11.1568 C.ar    1  UNL1        0.1413
      6 C          67.0674   92.9354   10.0907 C.ar    1  UNL1        0.0231
      7 C          67.8295   93.8947    9.2252 C.ar    1  UNL1        0.0221
      8 C          67.6729   95.3729    9.4259 C.ar    1  UNL1        0.0990
      9 N          66.7541   95.8919   10.4921 N.ar    1  UNL1       -0.2409
     10 C          65.9920   94.9326   11.3575 C.ar    1  UNL1        0.1187
     11 C          65.3491   90.7050   13.9049 C.3     1  UNL1        0.1416
     12 C          63.7781   87.5443   15.7193 C.ar    1  UNL1        0.1284
     13 C          63.0247   88.2040   16.8360 C.ar    1  UNL1        0.0341
     14 C          63.0460   89.6973   16.9758 C.ar    1  UNL1        0.0041
     15 C          63.8208   90.5310   15.9987 C.ar    1  UNL1        0.0163
     16 C          64.5743   89.8713   14.8820 C.ar    1  UNL1        0.0783
     17 N          64.5529   88.3780   14.7423 N.ar    1  UNL1       -0.2338
     18 N          63.7568   86.0510   15.5796 N.pl3   1  UNL1       -0.3135
     19 H          63.2534   85.5034   16.2245 H       1  UNL1        0.1485
     20 C          64.5025   85.3920   14.4573 C.3     1  UNL1        0.1306
     21 O          64.3809   83.5980   12.5819 O.co2   1  UNL1       -0.5474
     22 C          63.7482   84.7226   13.3469 C.2     1  UNL1        0.0702
     23 O          62.3613   85.1777   13.0014 O.co2   1  UNL1       -0.5474
     24 C          63.1377   91.4070   12.7357 C.3     1  UNL1        0.1225
     25 C          62.5656   90.4037   11.7787 C.ar    1  UNL1       -0.0044
     26 C          61.5891   90.8417   10.7277 C.ar    1  UNL1       -0.0013
     27 C          61.0170   89.8383    9.7707 C.ar    1  UNL1        0.0189
     28 C          61.4214   88.3968    9.8647 C.ar    1  UNL1        0.0828
     29 C          62.3979   87.9588   10.9158 C.ar    1  UNL1        0.0189
     30 C          62.9700   88.9623   11.8728 C.ar    1  UNL1       -0.0013
     31 N          60.8493   87.3934    8.9078 N.ar    1  UNL1       -0.2281
     32 C          59.4876   87.4494    8.2812 C.ar    1  UNL1        0.1020
     33 C          59.3351   86.2485    7.3955 C.ar    1  UNL1        0.0431
     34 C          60.6026   85.4502    7.4747 C.ar    1  UNL1        0.1221
     35 N          61.5384   86.1578    8.4093 N.ar    1  UNL1       -0.1635
@<TRIPOS>UNITY_ATOM_ATTR
21 1
charge -1
@<TRIPOS>BOND
     1    21    22   ar
     2    22    23   ar
     3    22    20    1
     4    20    18    1
     5    18    12    1
     6    12    13   ar
     7    13    14   ar
     8    14    15   ar
     9    15    16   ar
    10    16    11    1
    11    11     1    1
    12     1    24    1
    13    24    25    1
    14    25    26   ar
    15    26    27   ar
    16    27    28   ar
    17    28    31    1
    18    31    32   ar
    19    32    33   ar
    20    33    34   ar
    21    34    35   ar
    22    28    29   ar
    23    29    30   ar
    24     1     2    1
    25     2     3    2
    26     2     4    2
    27     2     5    1
    28     5     6   ar
    29     6     7   ar
    30     7     8   ar
    31     8     9   ar
    32     9    10   ar
    33    16    17   ar
    34    17    12   ar
    35    30    25   ar
    36    10     5   ar
    37    35    31   ar
    38    18    19    1
@<TRIPOS>MOLECULE
*****
 35 38 0 0 0
SMALL
GASTEIGER

@<TRIPOS>ATOM
      1 N          62.5497   87.8416   11.7649 N.3     1  UNL1       -0.1450
      2 S          61.6003   87.8798   10.6042 S.O2    1  UNL1        0.0654
      3 O          60.4753   88.2215   11.5357 O.2     1  UNL1       -0.1527
      4 O          62.7253   87.5381    9.6728 O.2     1  UNL1       -0.1527
      5 C          60.6509   87.9180    9.4436 C.ar    1  UNL1        0.1413
      6 C          60.0393   86.6472    8.9328 C.ar    1  UNL1        0.0231
      7 C          59.0899   86.6853    7.7721 C.ar    1  UNL1        0.0221
      8 C          58.7521   87.9943    7.1222 C.ar    1  UNL1        0.0990
      9 N          59.3637   89.2652    7.6330 N.ar    1  UNL1       -0.2409
     10 C          60.3131   89.2270    8.7936 C.ar    1  UNL1        0.1187
     11 C          63.3455   86.6009   12.0424 C.3     1  UNL1        0.1416
     12 C          62.8638   84.1465   15.1237 C.ar    1  UNL1        0.1284
     13 C          63.5267   84.9307   16.2171 C.ar    1  UNL1        0.0341
     14 C          64.1292   86.2716   15.9189 C.ar    1  UNL1        0.0041
     15 C          64.0688   86.8283   14.5274 C.ar    1  UNL1        0.0163
     16 C          63.4059   86.0441   13.4340 C.ar    1  UNL1        0.0783
     17 N          62.8034   84.7032   13.7322 N.ar    1  UNL1       -0.2338
     18 N          62.2613   82.8055   15.4218 N.pl3   1  UNL1       -0.3135
     19 H          62.1465   82.5140   16.3551 H       1  UNL1        0.1485
     20 C          61.8337   81.9088   14.2980 C.3     1  UNL1        0.1306
     21 O          63.7202   80.1257   14.4054 O.co2   1  UNL1       -0.5474
     22 C          62.8426   81.0417   13.6049 C.2     1  UNL1        0.0702
     23 O          62.9737   81.0905   12.1114 O.co2   1  UNL1       -0.5474
     24 C          62.7032   89.0444   12.6481 C.3     1  UNL1        0.1225
     25 C          63.5004   90.2243   12.1766 C.ar    1  UNL1       -0.0044
     26 C          63.2864   90.7706   10.7961 C.ar    1  UNL1       -0.0013
     27 C          64.0835   91.9505   10.3246 C.ar    1  UNL1        0.0189
     28 C          65.0946   92.5841   11.2336 C.ar    1  UNL1        0.0828
     29 C          65.3086   92.0378   12.6140 C.ar    1  UNL1        0.0189
     30 C          64.5114   90.8578   13.0856 C.ar    1  UNL1       -0.0013
     31 N          65.8918   93.7640   10.7620 N.ar    1  UNL1       -0.2281
     32 C          66.9297   93.7509    9.6793 C.ar    1  UNL1        0.1020
     33 C          67.4704   95.1430    9.5385 C.ar    1  UNL1        0.0431
     34 C          66.7665   96.0165   10.5343 C.ar    1  UNL1        0.1221
     35 N          65.7909   95.1643   11.2905 N.ar    1  UNL1       -0.1635
@<TRIPOS>UNITY_ATOM_ATTR
21 1
charge -1
@<TRIPOS>BOND
     1    21    22   ar
     2    22    23   ar
     3    22    20    1
     4    20    18    1
     5    18    12    1
     6    12    13   ar
     7    13    14   ar
     8    14    15   ar
     9    15    16   ar
    10    16    11    1
    11    11     1    1
    12     1    24    1
    13    24    25    1
    14    25    26   ar
    15    26    27   ar
    16    27    28   ar
    17    28    31    1
    18    31    32   ar
    19    32    33   ar
    20    33    34   ar
    21    34    35   ar
    22    28    29   ar
    23    29    30   ar
    24     1     2    1
    25     2     3    2
    26     2     4    2
    27     2     5    1
    28     5     6   ar
    29     6     7   ar
    30     7     8   ar
    31     8     9   ar
    32     9    10   ar
    33    16    17   ar
    34    17    12   ar
    35    30    25   ar
    36    10     5   ar
    37    35    31   ar
    38    18    19    1
@<TRIPOS>MOLECULE
*****
 35 38 0 0 0
SMALL
GASTEIGER

@<TRIPOS>ATOM
      1 N          62.3115   86.5355   11.0451 N.3     1  UNL1       -0.1450
      2 S          62.6163   85.1871   11.6273 S.O2    1  UNL1        0.0654
      3 O          62.1989   85.6776   12.9820 O.2     1  UNL1       -0.1527
      4 O          63.0338   84.6965   10.2726 O.2     1  UNL1       -0.1527
      5 C          62.9212   83.8387   12.2095 C.ar    1  UNL1        0.1413
      6 C          62.7971   82.6092   11.3593 C.ar    1  UNL1        0.0231
      7 C          63.1019   81.2608   11.9415 C.ar    1  UNL1        0.0221
      8 C          63.5308   81.1419   13.3739 C.ar    1  UNL1        0.0990
      9 N          63.6549   82.3715   14.2242 N.ar    1  UNL1       -0.2409
     10 C          63.3501   83.7198   13.6420 C.ar    1  UNL1        0.1187
     11 C          62.4009   86.7502    9.5633 C.3     1  UNL1        0.1416
     12 C          59.6950   88.7816    7.4892 C.ar    1  UNL1        0.1284
     13 C          58.6921   87.7042    7.2001 C.ar    1  UNL1        0.0341
     14 C          58.9255   86.3089    7.6987 C.ar    1  UNL1        0.0041
     15 C          60.1617   85.9909    8.4864 C.ar    1  UNL1        0.0163
     16 C          61.1646   87.0682    8.7755 C.ar    1  UNL1        0.0783
     17 N          60.9312   88.4635    8.2770 N.ar    1  UNL1       -0.2338
     18 N          59.4616   90.1769    6.9907 N.pl3   1  UNL1       -0.3135
     19 H          59.5007   90.9361    7.6162 H       1  UNL1        0.1485
     20 C          59.1686   90.4154    5.5391 C.3     1  UNL1        0.1306
     21 O          59.1258   92.8584    4.6558 O.co2   1  UNL1       -0.5474
     22 C          58.3975   91.6318    5.1196 C.2     1  UNL1        0.0702
     23 O          56.8982   91.6215    5.1639 O.co2   1  UNL1       -0.5474
     24 C          61.9172   87.6691   11.9448 C.3     1  UNL1        0.1225
     25 C          62.7322   88.9282   11.9659 C.ar    1  UNL1       -0.0044
     26 C          63.6115   89.2329   13.1424 C.ar    1  UNL1       -0.0013
     27 C          64.4265   90.4919   13.1634 C.ar    1  UNL1        0.0189
     28 C          64.3622   91.4464   12.0080 C.ar    1  UNL1        0.0828
     29 C          63.4829   91.1418   10.8316 C.ar    1  UNL1        0.0189
     30 C          62.6679   89.8826   10.8105 C.ar    1  UNL1       -0.0013
     31 N          65.1772   92.7055   12.0291 N.ar    1  UNL1       -0.2281
     32 C          65.4891   93.5737   10.8464 C.ar    1  UNL1        0.1020
     33 C          66.3280   94.7223   11.3229 C.ar    1  UNL1        0.0431
     34 C          66.5346   94.5639   12.8002 C.ar    1  UNL1        0.1221
     35 N          65.8233   93.3175   13.2366 N.ar    1  UNL1       -0.1635
@<TRIPOS>UNITY_ATOM_ATTR
21 1
charge -1
@<TRIPOS>BOND
     1    21    22   ar
     2    22    23   ar
     3    22    20    1
     4    20    18    1
     5    18    12    1
     6    12    13   ar
     7    13    14   ar
     8    14    15   ar
     9    15    16   ar
    10    16    11    1
    11    11     1    1
    12     1    24    1
    13    24    25    1
    14    25    26   ar
    15    26    27   ar
    16    27    28   ar
    17    28    31    1
    18    31    32   ar
    19    32    33   ar
    20    33    34   ar
    21    34    35   ar
    22    28    29   ar
    23    29    30   ar
    24     1     2    1
    25     2     3    2
    26     2     4    2
    27     2     5    1
    28     5     6   ar
    29     6     7   ar
    30     7     8   ar
    31     8     9   ar
    32     9    10   ar
    33    16    17   ar
    34    17    12   ar
    35    30    25   ar
    36    10     5   ar
    37    35    31   ar
    38    18    19    1
@<TRIPOS>MOLECULE
*****
 35 38 0 0 0
SMALL
GASTEIGER

@<TRIPOS>ATOM
      1 N          63.4785   89.0406   13.4280 N.3     1  UNL1       -0.1450
      2 S          62.6193   88.5604   12.2961 S.O2    1  UNL1        0.0654
      3 O          61.6810   89.7088   12.5211 O.2     1  UNL1       -0.1527
      4 O          63.5577   87.4119   12.0712 O.2     1  UNL1       -0.1527
      5 C          61.7602   88.0801   11.1643 C.ar    1  UNL1        0.1413
      6 C          61.7924   86.6364   10.7585 C.ar    1  UNL1        0.0231
      7 C          60.9332   86.1561    9.6266 C.ar    1  UNL1        0.0221
      8 C          60.0419   87.1195    8.9005 C.ar    1  UNL1        0.0990
      9 N          60.0096   88.5633    9.3063 N.ar    1  UNL1       -0.2409
     10 C          60.8688   89.0436   10.4382 C.ar    1  UNL1        0.1187
     11 C          64.2982   88.0616   14.2152 C.3     1  UNL1        0.1416
     12 C          62.6981   84.9801   16.1372 C.ar    1  UNL1        0.1284
     13 C          62.3713   85.6092   17.4591 C.ar    1  UNL1        0.0341
     14 C          62.6867   87.0558   17.6997 C.ar    1  UNL1        0.0041
     15 C          63.3290   87.8733   16.6184 C.ar    1  UNL1        0.0163
     16 C          63.6558   87.2442   15.2966 C.ar    1  UNL1        0.0783
     17 N          63.3403   85.7976   15.0559 N.ar    1  UNL1       -0.2338
     18 N          62.3826   83.5335   15.8966 N.pl3   1  UNL1       -0.3135
     19 H          62.0484   82.9734   16.6340 H       1  UNL1        0.1485
     20 C          62.5762   82.9405   14.5325 C.3     1  UNL1        0.1306
     21 O          60.7880   81.0772   14.2487 O.co2   1  UNL1       -0.5474
     22 C          62.2257   81.5036   14.2828 C.2     1  UNL1        0.0702
     23 O          63.3131   80.4929   14.0671 O.co2   1  UNL1       -0.5474
     24 C          63.5180   90.5000   13.7727 C.3     1  UNL1        0.1225
     25 C          64.2618   91.4590   12.8913 C.ar    1  UNL1       -0.0044
     26 C          65.3767   92.2876   13.4573 C.ar    1  UNL1       -0.0013
     27 C          66.1205   93.2466   12.5758 C.ar    1  UNL1        0.0189
     28 C          65.7494   93.3770   11.1282 C.ar    1  UNL1        0.0828
     29 C          64.6346   92.5483   10.5622 C.ar    1  UNL1        0.0189
     30 C          63.8907   91.5893   11.4438 C.ar    1  UNL1       -0.0013
     31 N          66.4933   94.3360   10.2467 N.ar    1  UNL1       -0.2281
     32 C          66.5050   95.8298   10.3816 C.ar    1  UNL1        0.1020
     33 C          67.3749   96.3866    9.2938 C.ar    1  UNL1        0.0431
     34 C          67.9008   95.2368    8.4867 C.ar    1  UNL1        0.1221
     35 N          67.3559   93.9695    9.0756 N.ar    1  UNL1       -0.1635
@<TRIPOS>UNITY_ATOM_ATTR
21 1
charge -1
@<TRIPOS>BOND
     1    21    22   ar
     2    22    23   ar
     3    22    20    1
     4    20    18    1
     5    18    12    1
     6    12    13   ar
     7    13    14   ar
     8    14    15   ar
     9    15    16   ar
    10    16    11    1
    11    11     1    1
    12     1    24    1
    13    24    25    1
    14    25    26   ar
    15    26    27   ar
    16    27    28   ar
    17    28    31    1
    18    31    32   ar
    19    32    33   ar
    20    33    34   ar
    21    34    35   ar
    22    28    29   ar
    23    29    30   ar
    24     1     2    1
    25     2     3    2
    26     2     4    2
    27     2     5    1
    28     5     6   ar
    29     6     7   ar
    30     7     8   ar
    31     8     9   ar
    32     9    10   ar
    33    16    17   ar
    34    17    12   ar
    35    30    25   ar
    36    10     5   ar
    37    35    31   ar
    38    18    19    1
@<TRIPOS>MOLECULE
*****
 35 38 0 0 0
SMALL
GASTEIGER

@<TRIPOS>ATOM
      1 N          62.6134   88.8453   12.1328 N.3     1  UNL1       -0.1450
      2 S          61.7283   88.5446   10.9597 S.O2    1  UNL1        0.0654
      3 O          60.5944   88.2403   11.8934 O.2     1  UNL1       -0.1527
      4 O          62.8622   88.8489   10.0261 O.2     1  UNL1       -0.1527
      5 C          60.8431   88.2438    9.7867 C.ar    1  UNL1        0.1413
      6 C          60.4850   86.8239    9.4619 C.ar    1  UNL1        0.0231
      7 C          59.5998   86.5231    8.2889 C.ar    1  UNL1        0.0221
      8 C          59.0728   87.6423    7.4406 C.ar    1  UNL1        0.0990
      9 N          59.4309   89.0623    7.7653 N.ar    1  UNL1       -0.2409
     10 C          60.3161   89.3631    8.9384 C.ar    1  UNL1        0.1187
     11 C          62.4278   90.1173   12.9058 C.3     1  UNL1        0.1416
     12 C          65.6471   92.4376   12.9546 C.ar    1  UNL1        0.1284
     13 C          66.0150   92.3815   14.4076 C.ar    1  UNL1        0.0341
     14 C          65.1871   91.5706   15.3601 C.ar    1  UNL1        0.0041
     15 C          63.9914   90.8159   14.8595 C.ar    1  UNL1        0.0163
     16 C          63.6235   90.8720   13.4065 C.ar    1  UNL1        0.0783
     17 N          64.4514   91.6829   12.4540 N.ar    1  UNL1       -0.2338
     18 N          66.4749   93.2485   12.0021 N.pl3   1  UNL1       -0.3135
     19 H          67.0130   94.0022   12.3362 H       1  UNL1        0.1485
     20 C          66.4828   92.9110   10.5406 C.3     1  UNL1        0.1306
     21 O          68.4012   94.3783    9.5830 O.co2   1  UNL1       -0.5474
     22 C          67.7505   93.0370    9.7486 C.2     1  UNL1        0.0702
     23 O          68.3675   91.8216    9.1223 O.co2   1  UNL1       -0.5474
     24 C          63.6843   87.8740   12.5328 C.3     1  UNL1        0.1225
     25 C          63.3482   86.4252   12.7271 C.ar    1  UNL1       -0.0044
     26 C          63.5510   85.7813   14.0666 C.ar    1  UNL1       -0.0013
     27 C          63.2149   84.3325   14.2609 C.ar    1  UNL1        0.0189
     28 C          62.6759   83.5274   13.1157 C.ar    1  UNL1        0.0828
     29 C          62.4731   84.1713   11.7762 C.ar    1  UNL1        0.0189
     30 C          62.8093   85.6202   11.5819 C.ar    1  UNL1       -0.0013
     31 N          62.3398   82.0785   13.3100 N.ar    1  UNL1       -0.2281
     32 C          62.9966   80.9207   12.6186 C.ar    1  UNL1        0.1020
     33 C          62.3506   79.6597   13.1111 C.ar    1  UNL1        0.0431
     34 C          61.2945   80.0382   14.1069 C.ar    1  UNL1        0.1221
     35 N          61.2878   81.5331   14.2298 N.ar    1  UNL1       -0.1635
@<TRIPOS>UNITY_ATOM_ATTR
21 1
charge -1
@<TRIPOS>BOND
     1    21    22   ar
     2    22    23   ar
     3    22    20    1
     4    20    18    1
     5    18    12    1
     6    12    13   ar
     7    13    14   ar
     8    14    15   ar
     9    15    16   ar
    10    16    11    1
    11    11     1    1
    12     1    24    1
    13    24    25    1
    14    25    26   ar
    15    26    27   ar
    16    27    28   ar
    17    28    31    1
    18    31    32   ar
    19    32    33   ar
    20    33    34   ar
    21    34    35   ar
    22    28    29   ar
    23    29    30   ar
    24     1     2    1
    25     2     3    2
    26     2     4    2
    27     2     5    1
    28     5     6   ar
    29     6     7   ar
    30     7     8   ar
    31     8     9   ar
    32     9    10   ar
    33    16    17   ar
    34    17    12   ar
    35    30    25   ar
    36    10     5   ar
    37    35    31   ar
    38    18    19    1
@<TRIPOS>MOLECULE
*****
 35 38 0 0 0
SMALL
GASTEIGER

@<TRIPOS>ATOM
      1 N          61.5985   88.2437   11.7314 N.3     1  UNL1       -0.1450
      2 S          62.1812   86.9223   11.3261 S.O2    1  UNL1        0.0654
      3 O          61.5920   86.2869   12.5505 O.2     1  UNL1       -0.1527
      4 O          62.7703   87.5576   10.1017 O.2     1  UNL1       -0.1527
      5 C          62.7638   85.6008   10.9208 C.ar    1  UNL1        0.1413
      6 C          62.9452   85.2750    9.4679 C.ar    1  UNL1        0.0231
      7 C          63.5278   83.9536    9.0626 C.ar    1  UNL1        0.0221
      8 C          63.9292   82.9579   10.1102 C.ar    1  UNL1        0.0990
      9 N          63.7478   83.2837   11.5632 N.ar    1  UNL1       -0.2409
     10 C          63.1652   84.6051   11.9685 C.ar    1  UNL1        0.1187
     11 C          60.2734   88.6798   11.1803 C.3     1  UNL1        0.1416
     12 C          59.6637   89.2008    7.2935 C.ar    1  UNL1        0.1284
     13 C          59.2300   87.8235    6.8875 C.ar    1  UNL1        0.0341
     14 C          59.1441   86.7316    7.9124 C.ar    1  UNL1        0.0041
     15 C          59.4918   87.0170    9.3433 C.ar    1  UNL1        0.0163
     16 C          59.9255   88.3943    9.7493 C.ar    1  UNL1        0.0783
     17 N          60.0114   89.4862    8.7244 N.ar    1  UNL1       -0.2338
     18 N          59.7496   90.2927    6.2686 N.pl3   1  UNL1       -0.3135
     19 H          60.5314   90.8908    6.2509 H       1  UNL1        0.1485
     20 C          58.6443   90.4733    5.2708 C.3     1  UNL1        0.1306
     21 O          59.1424   92.9023    4.4951 O.co2   1  UNL1       -0.5474
     22 C          58.1627   91.8515    4.9263 C.2     1  UNL1        0.0702
     23 O          56.7014   92.1787    5.0129 O.co2   1  UNL1       -0.5474
     24 C          62.3411   89.1291   12.6879 C.3     1  UNL1        0.1225
     25 C          63.2184   90.2280   12.1657 C.ar    1  UNL1       -0.0044
     26 C          63.0793   90.6876   10.7446 C.ar    1  UNL1       -0.0013
     27 C          63.9566   91.7865   10.2225 C.ar    1  UNL1        0.0189
     28 C          64.9730   92.4260   11.1214 C.ar    1  UNL1        0.0828
     29 C          65.1121   91.9664   12.5425 C.ar    1  UNL1        0.0189
     30 C          64.2347   90.8674   13.0647 C.ar    1  UNL1       -0.0013
     31 N          65.8503   93.5249   10.5993 N.ar    1  UNL1       -0.2281
     32 C          67.0645   93.3490    9.7364 C.ar    1  UNL1        0.1020
     33 C          67.6321   94.7080    9.4522 C.ar    1  UNL1        0.0431
     34 C          66.7685   95.7240   10.1394 C.ar    1  UNL1        0.1221
     35 N          65.6674   94.9927   10.8484 N.ar    1  UNL1       -0.1635
@<TRIPOS>UNITY_ATOM_ATTR
21 1
charge -1
@<TRIPOS>BOND
     1    21    22   ar
     2    22    23   ar
     3    22    20    1
     4    20    18    1
     5    18    12    1
     6    12    13   ar
     7    13    14   ar
     8    14    15   ar
     9    15    16   ar
    10    16    11    1
    11    11     1    1
    12     1    24    1
    13    24    25    1
    14    25    26   ar
    15    26    27   ar
    16    27    28   ar
    17    28    31    1
    18    31    32   ar
    19    32    33   ar
    20    33    34   ar
    21    34    35   ar
    22    28    29   ar
    23    29    30   ar
    24     1     2    1
    25     2     3    2
    26     2     4    2
    27     2     5    1
    28     5     6   ar
    29     6     7   ar
    30     7     8   ar
    31     8     9   ar
    32     9    10   ar
    33    16    17   ar
    34    17    12   ar
    35    30    25   ar
    36    10     5   ar
    37    35    31   ar
    38    18    19    1
@<TRIPOS>MOLECULE
*****
 35 38 0 0 0
SMALL
GASTEIGER

@<TRIPOS>ATOM
      1 N          63.5328   89.6515   15.1929 N.3     1  UNL1       -0.1450
      2 S          64.6073   90.6937   15.0975 S.O2    1  UNL1        0.0654
      3 O          63.7542   91.6452   15.8830 O.2     1  UNL1       -0.1527
      4 O          65.4604   89.7423   14.3120 O.2     1  UNL1       -0.1527
      5 C          65.6819   91.7359   15.0021 C.ar    1  UNL1        0.1413
      6 C          66.3332   92.2579   16.2484 C.ar    1  UNL1        0.0231
      7 C          67.4078   93.3001   16.1531 C.ar    1  UNL1        0.0221
      8 C          67.8310   93.8204   14.8114 C.ar    1  UNL1        0.0990
      9 N          67.1797   93.2984   13.5650 N.ar    1  UNL1       -0.2409
     10 C          66.1051   92.2562   13.6604 C.ar    1  UNL1        0.1187
     11 C          62.3123   89.7511   14.3266 C.3     1  UNL1        0.1416
     12 C          62.2341   88.6251   10.5218 C.ar    1  UNL1        0.1284
     13 C          62.7356   89.8679    9.8481 C.ar    1  UNL1        0.0341
     14 C          63.0959   91.0717   10.6671 C.ar    1  UNL1        0.0041
     15 C          62.9549   91.0328   12.1599 C.ar    1  UNL1        0.0163
     16 C          62.4534   89.7901   12.8337 C.ar    1  UNL1        0.0783
     17 N          62.0931   88.5862   12.0146 N.ar    1  UNL1       -0.2338
     18 N          61.8738   87.4212    9.7028 N.pl3   1  UNL1       -0.3135
     19 H          62.5802   86.8982    9.2593 H       1  UNL1        0.1485
     20 C          60.4372   87.0143    9.5594 C.3     1  UNL1        0.1306
     21 O          59.8794   88.9732    7.9465 O.co2   1  UNL1       -0.5474
     22 C          59.6013   87.5896    8.4547 C.2     1  UNL1        0.0702
     23 O          58.4874   86.7812    7.8583 O.co2   1  UNL1       -0.5474
     24 C          63.6787   88.5096   16.1547 C.3     1  UNL1        0.1225
     25 C          63.4926   87.0995   15.6785 C.ar    1  UNL1       -0.0044
     26 C          64.1144   86.6556   14.3876 C.ar    1  UNL1       -0.0013
     27 C          63.9282   85.2454   13.9114 C.ar    1  UNL1        0.0189
     28 C          63.1203   84.2791   14.7261 C.ar    1  UNL1        0.0828
     29 C          62.4985   84.7231   16.0170 C.ar    1  UNL1        0.0189
     30 C          62.6847   86.1333   16.4931 C.ar    1  UNL1       -0.0013
     31 N          62.9342   82.8690   14.2499 N.ar    1  UNL1       -0.2281
     32 C          63.9002   82.0874   13.4097 C.ar    1  UNL1        0.1020
     33 C          63.3125   80.7282   13.1708 C.ar    1  UNL1        0.0431
     34 C          61.9831   80.6697   13.8634 C.ar    1  UNL1        0.1221
     35 N          61.7494   81.9928   14.5303 N.ar    1  UNL1       -0.1635
@<TRIPOS>UNITY_ATOM_ATTR
21 1
charge -1
@<TRIPOS>BOND
     1    21    22   ar
     2    22    23   ar
     3    22    20    1
     4    20    18    1
     5    18    12    1
     6    12    13   ar
     7    13    14   ar
     8    14    15   ar
     9    15    16   ar
    10    16    11    1
    11    11     1    1
    12     1    24    1
    13    24    25    1
    14    25    26   ar
    15    26    27   ar
    16    27    28   ar
    17    28    31    1
    18    31    32   ar
    19    32    33   ar
    20    33    34   ar
    21    34    35   ar
    22    28    29   ar
    23    29    30   ar
    24     1     2    1
    25     2     3    2
    26     2     4    2
    27     2     5    1
    28     5     6   ar
    29     6     7   ar
    30     7     8   ar
    31     8     9   ar
    32     9    10   ar
    33    16    17   ar
    34    17    12   ar
    35    30    25   ar
    36    10     5   ar
    37    35    31   ar
    38    18    19    1
@<TRIPOS>MOLECULE
*****
 35 38 0 0 0
SMALL
GASTEIGER

@<TRIPOS>ATOM
      1 N          62.3427   88.4167   11.9401 N.3     1  UNL1       -0.1450
      2 S          61.5194   88.0950   10.7282 S.O2    1  UNL1        0.0654
      3 O          60.4363   87.5470   11.6095 O.2     1  UNL1       -0.1527
      4 O          62.6025   88.6429    9.8469 O.2     1  UNL1       -0.1527
      5 C          60.6961   87.7732    9.5163 C.ar    1  UNL1        0.1413
      6 C          60.5885   86.3558    9.0374 C.ar    1  UNL1        0.0231
      7 C          59.7652   86.0341    7.8255 C.ar    1  UNL1        0.0221
      8 C          59.0496   87.1297    7.0925 C.ar    1  UNL1        0.0990
      9 N          59.1572   88.5472    7.5714 N.ar    1  UNL1       -0.2409
     10 C          59.9805   88.8689    8.7833 C.ar    1  UNL1        0.1187
     11 C          63.3187   87.4099   12.4727 C.3     1  UNL1        0.1416
     12 C          62.4010   83.6387   13.3010 C.ar    1  UNL1        0.1284
     13 C          62.5278   83.0116   11.9443 C.ar    1  UNL1        0.0341
     14 C          62.9181   83.8505   10.7637 C.ar    1  UNL1        0.0041
     15 C          63.1817   85.3166   10.9398 C.ar    1  UNL1        0.0163
     16 C          63.0550   85.9437   12.2965 C.ar    1  UNL1        0.0783
     17 N          62.6647   85.1047   13.4771 N.ar    1  UNL1       -0.2338
     18 N          62.0107   82.7997   14.4816 N.pl3   1  UNL1       -0.3135
     19 H          61.9753   83.2005   15.3801 H       1  UNL1        0.1485
     20 C          61.6743   81.3501   14.2931 C.3     1  UNL1        0.1306
     21 O          64.0216   80.2415   14.3978 O.co2   1  UNL1       -0.5474
     22 C          62.6945   80.4118   13.7198 C.2     1  UNL1        0.0702
     23 O          62.3875   79.6437   12.4685 O.co2   1  UNL1       -0.5474
     24 C          62.1899   89.7454   12.6194 C.3     1  UNL1        0.1225
     25 C          63.3859   90.4222   13.2207 C.ar    1  UNL1       -0.0044
     26 C          63.6746   90.2732   14.6851 C.ar    1  UNL1       -0.0013
     27 C          64.8705   90.9501   15.2864 C.ar    1  UNL1        0.0189
     28 C          65.7778   91.7759   14.4233 C.ar    1  UNL1        0.0828
     29 C          65.4891   91.9248   12.9589 C.ar    1  UNL1        0.0189
     30 C          64.2931   91.2479   12.3576 C.ar    1  UNL1       -0.0013
     31 N          66.9738   92.4527   15.0245 N.ar    1  UNL1       -0.2281
     32 C          67.3012   93.9134   14.9285 C.ar    1  UNL1        0.1020
     33 C          68.5821   94.1511   15.6721 C.ar    1  UNL1        0.0431
     34 C          69.0463   92.8374   16.2276 C.ar    1  UNL1        0.1221
     35 N          68.0523   91.7877   15.8274 N.ar    1  UNL1       -0.1635
@<TRIPOS>UNITY_ATOM_ATTR
21 1
charge -1
@<TRIPOS>BOND
     1    21    22   ar
     2    22    23   ar
     3    22    20    1
     4    20    18    1
     5    18    12    1
     6    12    13   ar
     7    13    14   ar
     8    14    15   ar
     9    15    16   ar
    10    16    11    1
    11    11     1    1
    12     1    24    1
    13    24    25    1
    14    25    26   ar
    15    26    27   ar
    16    27    28   ar
    17    28    31    1
    18    31    32   ar
    19    32    33   ar
    20    33    34   ar
    21    34    35   ar
    22    28    29   ar
    23    29    30   ar
    24     1     2    1
    25     2     3    2
    26     2     4    2
    27     2     5    1
    28     5     6   ar
    29     6     7   ar
    30     7     8   ar
    31     8     9   ar
    32     9    10   ar
    33    16    17   ar
    34    17    12   ar
    35    30    25   ar
    36    10     5   ar
    37    35    31   ar
    38    18    19    1
@<TRIPOS>MOLECULE
*****
 35 38 0 0 0
SMALL
GASTEIGER

@<TRIPOS>ATOM
      1 N          62.5694   88.1794   11.9260 N.3     1  UNL1       -0.1450
      2 S          61.6921   87.9673   10.7279 S.O2    1  UNL1        0.0654
      3 O          60.8355   87.0261   11.5218 O.2     1  UNL1       -0.1527
      4 O          62.5488   88.9084    9.9340 O.2     1  UNL1       -0.1527
      5 C          60.8149   87.7551    9.5298 C.ar    1  UNL1        0.1413
      6 C          60.2229   88.9338    8.8155 C.ar    1  UNL1        0.0231
      7 C          59.3457   88.7217    7.6174 C.ar    1  UNL1        0.0221
      8 C          59.0604   87.3308    7.1336 C.ar    1  UNL1        0.0990
      9 N          59.6524   86.1520    7.8479 N.ar    1  UNL1       -0.2409
     10 C          60.5296   86.3642    9.0460 C.ar    1  UNL1        0.1187
     11 C          63.6130   87.1622   12.2810 C.3     1  UNL1        0.1416
     12 C          62.4836   84.1305   14.5796 C.ar    1  UNL1        0.1284
     13 C          63.0639   84.5440   15.8995 C.ar    1  UNL1        0.0341
     14 C          63.8273   85.8302   16.0133 C.ar    1  UNL1        0.0041
     15 C          64.0103   86.7030   14.8071 C.ar    1  UNL1        0.0163
     16 C          63.4300   86.2895   13.4872 C.ar    1  UNL1        0.0783
     17 N          62.6666   85.0033   13.3735 N.ar    1  UNL1       -0.2338
     18 N          61.7202   82.8443   14.4659 N.pl3   1  UNL1       -0.3135
     19 H          60.9506   82.6748   15.0560 H       1  UNL1        0.1485
     20 C          62.1294   81.8164   13.4530 C.3     1  UNL1        0.1306
     21 O          64.5288   81.8645   12.4579 O.co2   1  UNL1       -0.5474
     22 C          63.5382   81.3019   13.4336 C.2     1  UNL1        0.0702
     23 O          63.9564   80.2246   14.3900 O.co2   1  UNL1       -0.5474
     24 C          62.4030   89.4089   12.7691 C.3     1  UNL1        0.1225
     25 C          63.6108   90.1460   13.2670 C.ar    1  UNL1       -0.0044
     26 C          64.1963   89.8082   14.6061 C.ar    1  UNL1       -0.0013
     27 C          65.4041   90.5452   15.1041 C.ar    1  UNL1        0.0189
     28 C          66.0264   91.6201   14.2629 C.ar    1  UNL1        0.0828
     29 C          65.4409   91.9578   12.9239 C.ar    1  UNL1        0.0189
     30 C          64.2331   91.2207   12.4259 C.ar    1  UNL1       -0.0013
     31 N          67.2342   92.3571   14.7609 N.ar    1  UNL1       -0.2281
     32 C          67.2719   93.3042   15.9234 C.ar    1  UNL1        0.1020
     33 C          68.6773   93.8089   16.0648 C.ar    1  UNL1        0.0431
     34 C          69.5083   93.1737   14.9895 C.ar    1  UNL1        0.1221
     35 N          68.6164   92.2764   14.1837 N.ar    1  UNL1       -0.1635
@<TRIPOS>UNITY_ATOM_ATTR
21 1
charge -1
@<TRIPOS>BOND
     1    21    22   ar
     2    22    23   ar
     3    22    20    1
     4    20    18    1
     5    18    12    1
     6    12    13   ar
     7    13    14   ar
     8    14    15   ar
     9    15    16   ar
    10    16    11    1
    11    11     1    1
    12     1    24    1
    13    24    25    1
    14    25    26   ar
    15    26    27   ar
    16    27    28   ar
    17    28    31    1
    18    31    32   ar
    19    32    33   ar
    20    33    34   ar
    21    34    35   ar
    22    28    29   ar
    23    29    30   ar
    24     1     2    1
    25     2     3    2
    26     2     4    2
    27     2     5    1
    28     5     6   ar
    29     6     7   ar
    30     7     8   ar
    31     8     9   ar
    32     9    10   ar
    33    16    17   ar
    34    17    12   ar
    35    30    25   ar
    36    10     5   ar
    37    35    31   ar
    38    18    19    1
