@<TRIPOS>MOLECULE
*****
 32 35 0 0 0
SMALL
GASTEIGER

@<TRIPOS>ATOM
      1 C          63.2909   88.8991   12.5474 C.ar    1  UNL1        0.1048
      2 C          62.2004   89.1415   11.5465 C.ar    1  UNL1        0.0553
      3 C          61.3911   87.9910   11.0256 C.ar    1  UNL1        0.1389
      4 N          61.6724   86.5980   11.5057 N.ar    1  UNL1       -0.1948
      5 C          62.7629   86.3556   12.5066 C.ar    1  UNL1        0.2539
      6 N          63.5722   87.5062   13.0275 N.ar    1  UNL1       -0.2083
      7 N          63.0442   84.9626   12.9867 N.ar    1  UNL1       -0.2008
      8 N          62.6956   83.6943   12.2657 N.ar    1  UNL1       -0.1673
      9 C          63.1594   82.5412   13.1055 C.ar    1  UNL1        0.0806
     10 C          63.0136   81.0876   12.7651 C.3     1  UNL1        0.0540
     11 C          63.7948   83.0969   14.3455 C.ar    1  UNL1        0.0313
     12 C          63.7236   84.5934   14.2721 C.ar    1  UNL1        0.0651
     13 C          64.2409   85.5523   15.3030 C.3     1  UNL1        0.0523
     14 C          65.4594   92.2217   12.6381 C.ar    1  UNL1        0.1317
     15 C          65.7187   92.3509   14.1098 C.ar    1  UNL1        0.0343
     16 C          65.1688   91.3294   15.0608 C.ar    1  UNL1        0.0045
     17 C          64.3596   90.1788   14.5400 C.ar    1  UNL1        0.0208
     18 C          64.1002   90.0497   13.0683 C.ar    1  UNL1        0.1005
     19 N          64.6501   91.0712   12.1173 N.ar    1  UNL1       -0.2292
     20 C          67.1090   95.2861    9.7853 C.3     1  UNL1        0.1188
     21 C          66.5734   95.7148   11.1192 C.3     1  UNL1        0.0510
     22 C          66.0235   94.6934   12.0701 C.3     1  UNL1        0.0947
     23 N          66.0092   93.2432   11.6872 N.pl3   1  UNL1       -0.2931
     24 C          66.5448   92.8144   10.3533 C.3     1  UNL1        0.0947
     25 C          67.0947   93.8359    9.4024 C.3     1  UNL1        0.0510
     26 C          66.7931   96.8547    7.7385 C.3     1  UNL1        0.1740
     27 O          67.6589   96.3075    8.8344 O.3     1  UNL1       -0.3535
     28 N          60.3005   88.2335   10.0247 N.am    1  UNL1       -0.2692
     29 C          60.2610   87.4410    8.7518 C.2     1  UNL1        0.2277
     30 C          59.1705   87.6834    7.7508 C.3     1  UNL1        0.0950
     31 O          61.3122   86.4059    8.4798 O.2     1  UNL1       -0.2747
     32 H          59.6106   88.9128   10.2032 H       1  UNL1        0.1563
@<TRIPOS>BOND
     1    26    27    1
     2    27    20    1
     3    20    21    1
     4    21    22    1
     5    22    23    1
     6    23    14    1
     7    14    15   ar
     8    15    16   ar
     9    16    17   ar
    10    17    18   ar
    11    18     1    1
    12     1     2   ar
    13     2     3   ar
    14     3    28    1
    15    28    29   am
    16    29    30    1
    17    29    31    2
    18     3     4   ar
    19     4     5   ar
    20     5     7    1
    21     7     8   ar
    22     8     9   ar
    23     9    10    1
    24     9    11   ar
    25    11    12   ar
    26    12    13    1
    27     5     6   ar
    28    18    19   ar
    29    23    24    1
    30    24    25    1
    31    25    20    1
    32    19    14   ar
    33     6     1   ar
    34    12     7   ar
    35    28    32    1
@<TRIPOS>MOLECULE
*****
 32 35 0 0 0
SMALL
GASTEIGER

@<TRIPOS>ATOM
      1 C          64.0926   90.9920   11.9932 C.ar    1  UNL1        0.1048
      2 C          64.6529   91.0804   13.3819 C.ar    1  UNL1        0.0553
      3 C          65.7526   92.0539   13.6863 C.ar    1  UNL1        0.1389
      4 N          66.2922   92.9391   12.6021 N.ar    1  UNL1       -0.1948
      5 C          65.7319   92.8508   11.2135 C.ar    1  UNL1        0.2539
      6 N          64.6321   91.8772   10.9091 N.ar    1  UNL1       -0.2083
      7 N          66.2713   93.7359   10.1294 N.ar    1  UNL1       -0.2008
      8 N          65.6698   95.0298    9.6665 N.ar    1  UNL1       -0.1673
      9 C          66.5338   95.5761    8.5688 C.ar    1  UNL1        0.0806
     10 C          66.3028   96.8543    7.8184 C.3     1  UNL1        0.0540
     11 C          67.6692   94.6199    8.3532 C.ar    1  UNL1        0.0313
     12 C          67.5070   93.4826    9.3177 C.ar    1  UNL1        0.0651
     13 C          68.4202   92.2998    9.4476 C.3     1  UNL1        0.0523
     14 C          62.1452   87.5702   11.4939 C.ar    1  UNL1        0.1317
     15 C          60.7933   88.0713   11.0800 C.ar    1  UNL1        0.0343
     16 C          60.5412   89.5459   10.9705 C.ar    1  UNL1        0.0045
     17 C          61.6409   90.5194   11.2749 C.ar    1  UNL1        0.0208
     18 C          62.9928   90.0184   11.6888 C.ar    1  UNL1        0.1005
     19 N          63.2449   88.5438   11.7983 N.ar    1  UNL1       -0.2292
     20 C          62.9017   83.1465   11.8223 C.3     1  UNL1        0.1188
     21 C          62.7749   83.9798   13.0630 C.3     1  UNL1        0.0510
     22 C          62.5228   85.4544   12.9535 C.3     1  UNL1        0.0947
     23 N          62.3974   86.0957   11.6033 N.pl3   1  UNL1       -0.2931
     24 C          62.5241   85.2623   10.3626 C.3     1  UNL1        0.0947
     25 C          62.7763   83.7877   10.4721 C.3     1  UNL1        0.0510
     26 C          63.5175   81.0695   13.2564 C.3     1  UNL1        0.1740
     27 O          63.1539   81.6719   11.9317 O.3     1  UNL1       -0.3535
     28 N          66.3129   92.1423   15.0749 N.am    1  UNL1       -0.2692
     29 C          67.7924   92.2816   15.2793 C.2     1  UNL1        0.2277
     30 C          68.3527   92.3700   16.6679 C.3     1  UNL1        0.0950
     31 O          68.7116   92.3325   14.0950 O.2     1  UNL1       -0.2747
     32 H          65.7096   92.1088   15.8522 H       1  UNL1        0.1563
@<TRIPOS>BOND
     1    26    27    1
     2    27    20    1
     3    20    21    1
     4    21    22    1
     5    22    23    1
     6    23    14    1
     7    14    15   ar
     8    15    16   ar
     9    16    17   ar
    10    17    18   ar
    11    18     1    1
    12     1     2   ar
    13     2     3   ar
    14     3    28    1
    15    28    29   am
    16    29    30    1
    17    29    31    2
    18     3     4   ar
    19     4     5   ar
    20     5     7    1
    21     7     8   ar
    22     8     9   ar
    23     9    10    1
    24     9    11   ar
    25    11    12   ar
    26    12    13    1
    27     5     6   ar
    28    18    19   ar
    29    23    24    1
    30    24    25    1
    31    25    20    1
    32    19    14   ar
    33     6     1   ar
    34    12     7   ar
    35    28    32    1
@<TRIPOS>MOLECULE
*****
 32 35 0 0 0
SMALL
GASTEIGER

@<TRIPOS>ATOM
      1 C          63.8290   91.1823   11.8715 C.ar    1  UNL1        0.1048
      2 C          64.4558   91.0796   13.2303 C.ar    1  UNL1        0.0553
      3 C          65.7062   91.8483   13.5396 C.ar    1  UNL1        0.1389
      4 N          66.3298   92.7198   12.4899 N.ar    1  UNL1       -0.1948
      5 C          65.7030   92.8225   11.1310 C.ar    1  UNL1        0.2539
      6 N          64.4526   92.0537   10.8218 N.ar    1  UNL1       -0.2083
      7 N          66.3266   93.6939   10.0814 N.ar    1  UNL1       -0.2008
      8 N          65.8243   95.0356    9.6369 N.ar    1  UNL1       -0.1673
      9 C          66.7492   95.5475    8.5727 C.ar    1  UNL1        0.0806
     10 C          66.6224   96.8551    7.8488 C.3     1  UNL1        0.0540
     11 C          67.8231   94.5222    8.3596 C.ar    1  UNL1        0.0313
     12 C          67.5619   93.3766    9.2920 C.ar    1  UNL1        0.0651
     13 C          68.3906   92.1323    9.4136 C.3     1  UNL1        0.0523
     14 C          61.3633   88.5259   10.2547 C.ar    1  UNL1        0.1317
     15 C          60.0779   88.8762   10.9438 C.ar    1  UNL1        0.0343
     16 C          60.0428   89.9952   11.9421 C.ar    1  UNL1        0.0045
     17 C          61.2931   90.7639   12.2513 C.ar    1  UNL1        0.0208
     18 C          62.5786   90.4136   11.5622 C.ar    1  UNL1        0.1005
     19 N          62.6137   89.2946   10.5639 N.ar    1  UNL1       -0.2292
     20 C          61.4687   85.1689    7.2598 C.3     1  UNL1        0.1188
     21 C          62.6638   85.4402    8.1246 C.3     1  UNL1        0.0510
     22 C          62.6287   86.5592    9.1229 C.3     1  UNL1        0.0947
     23 N          61.3985   87.4069    9.2564 N.pl3   1  UNL1       -0.2931
     24 C          60.2033   87.1356    8.3915 C.3     1  UNL1        0.0947
     25 C          60.2385   86.0167    7.3932 C.3     1  UNL1        0.0510
     26 C          62.0878   84.2785    4.8989 C.3     1  UNL1        0.1740
     27 O          61.5038   84.0499    6.2614 O.3     1  UNL1       -0.3535
     28 N          66.3330   91.7456   14.8985 N.am    1  UNL1       -0.2692
     29 C          67.7706   92.1273   15.0921 C.2     1  UNL1        0.2277
     30 C          68.3974   92.0245   16.4510 C.3     1  UNL1        0.0950
     31 O          68.5815   92.6117   13.9268 O.2     1  UNL1       -0.2747
     32 H          65.8008   91.4276   15.6633 H       1  UNL1        0.1563
@<TRIPOS>BOND
     1    26    27    1
     2    27    20    1
     3    20    21    1
     4    21    22    1
     5    22    23    1
     6    23    14    1
     7    14    15   ar
     8    15    16   ar
     9    16    17   ar
    10    17    18   ar
    11    18     1    1
    12     1     2   ar
    13     2     3   ar
    14     3    28    1
    15    28    29   am
    16    29    30    1
    17    29    31    2
    18     3     4   ar
    19     4     5   ar
    20     5     7    1
    21     7     8   ar
    22     8     9   ar
    23     9    10    1
    24     9    11   ar
    25    11    12   ar
    26    12    13    1
    27     5     6   ar
    28    18    19   ar
    29    23    24    1
    30    24    25    1
    31    25    20    1
    32    19    14   ar
    33     6     1   ar
    34    12     7   ar
    35    28    32    1
@<TRIPOS>MOLECULE
*****
 32 35 0 0 0
SMALL
GASTEIGER

@<TRIPOS>ATOM
      1 C          62.4501   86.7164   10.5301 C.ar    1  UNL1        0.1048
      2 C          62.5695   86.3885    9.0713 C.ar    1  UNL1        0.0553
      3 C          62.8224   84.9747    8.6386 C.ar    1  UNL1        0.1389
      4 N          62.9559   83.8888    9.6648 N.ar    1  UNL1       -0.1948
      5 C          62.8365   84.2167   11.1237 C.ar    1  UNL1        0.2539
      6 N          62.5836   85.6306   11.5563 N.ar    1  UNL1       -0.2083
      7 N          62.9700   83.1309   12.1499 N.ar    1  UNL1       -0.2008
      8 N          62.2629   81.8082   12.1311 N.ar    1  UNL1       -0.1673
      9 C          62.6899   81.0369   13.3446 C.ar    1  UNL1        0.0806
     10 C          62.2271   79.6612   13.7229 C.3     1  UNL1        0.0540
     11 C          63.6611   81.8830   14.1135 C.ar    1  UNL1        0.0313
     12 C          63.8342   83.1771   13.3750 C.ar    1  UNL1        0.0651
     13 C          64.7165   84.3173   13.7891 C.3     1  UNL1        0.0523
     14 C          62.8563   90.1984   12.3904 C.ar    1  UNL1        0.1317
     15 C          61.6915   90.9579   11.8280 C.ar    1  UNL1        0.0343
     16 C          60.7795   90.3035   10.8329 C.ar    1  UNL1        0.0045
     17 C          61.0324   88.8897   10.4003 C.ar    1  UNL1        0.0208
     18 C          62.1972   88.1303   10.9627 C.ar    1  UNL1        0.1005
     19 N          63.1092   88.7846   11.9578 N.ar    1  UNL1       -0.2292
     20 C          65.5922   92.1615   15.3756 C.3     1  UNL1        0.1188
     21 C          64.4624   91.2962   15.8495 C.3     1  UNL1        0.0510
     22 C          63.5504   90.6419   14.8544 C.3     1  UNL1        0.0947
     23 N          63.7683   90.8528   13.3855 N.pl3   1  UNL1       -0.2931
     24 C          64.8982   91.7181   12.9115 C.3     1  UNL1        0.0947
     25 C          65.8101   92.3724   13.9066 C.3     1  UNL1        0.0510
     26 C          67.9727   92.9238   16.0844 C.3     1  UNL1        0.1740
     27 O          66.5042   92.8158   16.3706 O.3     1  UNL1       -0.3535
     28 N          62.9417   84.6467    7.1798 N.am    1  UNL1       -0.2692
     29 C          61.7192   84.6367    6.3108 C.2     1  UNL1        0.2277
     30 C          61.8385   84.3088    4.8520 C.3     1  UNL1        0.0950
     31 O          60.3771   84.9547    6.9007 O.2     1  UNL1       -0.2747
     32 H          63.8225   84.4381    6.7926 H       1  UNL1        0.1563
@<TRIPOS>BOND
     1    26    27    1
     2    27    20    1
     3    20    21    1
     4    21    22    1
     5    22    23    1
     6    23    14    1
     7    14    15   ar
     8    15    16   ar
     9    16    17   ar
    10    17    18   ar
    11    18     1    1
    12     1     2   ar
    13     2     3   ar
    14     3    28    1
    15    28    29   am
    16    29    30    1
    17    29    31    2
    18     3     4   ar
    19     4     5   ar
    20     5     7    1
    21     7     8   ar
    22     8     9   ar
    23     9    10    1
    24     9    11   ar
    25    11    12   ar
    26    12    13    1
    27     5     6   ar
    28    18    19   ar
    29    23    24    1
    30    24    25    1
    31    25    20    1
    32    19    14   ar
    33     6     1   ar
    34    12     7   ar
    35    28    32    1
@<TRIPOS>MOLECULE
*****
 32 35 0 0 0
SMALL
GASTEIGER

@<TRIPOS>ATOM
      1 C          62.2655   86.5471   10.4839 C.ar    1  UNL1        0.1048
      2 C          62.4302   86.2355    9.0259 C.ar    1  UNL1        0.0553
      3 C          62.7782   84.8427    8.5913 C.ar    1  UNL1        0.1389
      4 N          62.9614   83.7614    9.6147 N.ar    1  UNL1       -0.1948
      5 C          62.7967   84.0730   11.0727 C.ar    1  UNL1        0.2539
      6 N          62.4487   85.4659   11.5073 N.ar    1  UNL1       -0.2083
      7 N          62.9799   82.9918   12.0961 N.ar    1  UNL1       -0.2008
      8 N          62.3180   81.6457   12.0848 N.ar    1  UNL1       -0.1673
      9 C          62.7862   80.8888   13.2922 C.ar    1  UNL1        0.0806
     10 C          62.3753   79.4979   13.6749 C.3     1  UNL1        0.0540
     11 C          63.7374   81.7670   14.0497 C.ar    1  UNL1        0.0313
     12 C          63.8571   83.0667   13.3105 C.ar    1  UNL1        0.0651
     13 C          64.7052   84.2360   13.7147 C.3     1  UNL1        0.0523
     14 C          62.6367   90.3847   11.4249 C.ar    1  UNL1        0.1317
     15 C          61.2218   90.7257   11.7876 C.ar    1  UNL1        0.0343
     16 C          60.1547   89.6739   11.7159 C.ar    1  UNL1        0.0045
     17 C          60.5026   88.2811   11.2813 C.ar    1  UNL1        0.0208
     18 C          61.9175   87.9400   10.9185 C.ar    1  UNL1        0.1005
     19 N          62.9846   88.9918   10.9903 N.ar    1  UNL1       -0.2292
     20 C          65.8378   93.5401   11.6402 C.3     1  UNL1        0.1188
     21 C          65.1049   93.3018   10.3533 C.3     1  UNL1        0.0510
     22 C          64.0378   92.2500   10.2816 C.3     1  UNL1        0.0947
     23 N          63.7037   91.4365   11.4966 N.pl3   1  UNL1       -0.2931
     24 C          64.4366   91.6748   12.7835 C.3     1  UNL1        0.0947
     25 C          65.5036   92.7266   12.8553 C.3     1  UNL1        0.0510
     26 C          66.8754   95.7559   10.7664 C.3     1  UNL1        0.1740
     27 O          66.9048   94.5919   11.7120 O.3     1  UNL1       -0.3535
     28 N          62.9429   84.5311    7.1333 N.am    1  UNL1       -0.2692
     29 C          61.7501   84.5452    6.2239 C.2     1  UNL1        0.2277
     30 C          61.9148   84.2335    4.7659 C.3     1  UNL1        0.0950
     31 O          60.3925   84.8709    6.7725 O.2     1  UNL1       -0.2747
     32 H          63.8339   84.3173    6.7732 H       1  UNL1        0.1563
@<TRIPOS>BOND
     1    26    27    1
     2    27    20    1
     3    20    21    1
     4    21    22    1
     5    22    23    1
     6    23    14    1
     7    14    15   ar
     8    15    16   ar
     9    16    17   ar
    10    17    18   ar
    11    18     1    1
    12     1     2   ar
    13     2     3   ar
    14     3    28    1
    15    28    29   am
    16    29    30    1
    17    29    31    2
    18     3     4   ar
    19     4     5   ar
    20     5     7    1
    21     7     8   ar
    22     8     9   ar
    23     9    10    1
    24     9    11   ar
    25    11    12   ar
    26    12    13    1
    27     5     6   ar
    28    18    19   ar
    29    23    24    1
    30    24    25    1
    31    25    20    1
    32    19    14   ar
    33     6     1   ar
    34    12     7   ar
    35    28    32    1
@<TRIPOS>MOLECULE
*****
 32 35 0 0 0
SMALL
GASTEIGER

@<TRIPOS>ATOM
      1 C          61.5617   88.0107   10.3505 C.ar    1  UNL1        0.1048
      2 C          61.7740   86.8017   11.2126 C.ar    1  UNL1        0.0553
      3 C          62.7383   86.8586   12.3600 C.ar    1  UNL1        0.1389
      4 N          63.4905   88.1246   12.6455 N.ar    1  UNL1       -0.1948
      5 C          63.2783   89.3337   11.7835 C.ar    1  UNL1        0.2539
      6 N          62.3138   89.2767   10.6359 N.ar    1  UNL1       -0.2083
      7 N          64.0304   90.5997   12.0689 N.ar    1  UNL1       -0.2008
      8 N          64.4635   91.6159   11.0540 N.ar    1  UNL1       -0.1673
      9 C          65.1822   92.7160   11.7772 C.ar    1  UNL1        0.0806
     10 C          65.7842   93.9379   11.1489 C.3     1  UNL1        0.0540
     11 C          65.1934   92.3798   13.2390 C.ar    1  UNL1        0.0313
     12 C          64.4815   91.0718   13.4193 C.ar    1  UNL1        0.0651
     13 C          64.2598   90.3609   14.7213 C.3     1  UNL1        0.0523
     14 C          59.5971   89.0093    7.0500 C.ar    1  UNL1        0.1317
     15 C          58.6686   87.8399    6.9081 C.ar    1  UNL1        0.0343
     16 C          58.7044   86.7274    7.9136 C.ar    1  UNL1        0.0045
     17 C          59.6687   86.7844    9.0611 C.ar    1  UNL1        0.0208
     18 C          60.5973   87.9538    9.2030 C.ar    1  UNL1        0.1005
     19 N          60.5615   89.0663    8.1975 N.ar    1  UNL1       -0.2292
     20 C          59.4897   92.3468    4.0334 C.3     1  UNL1        0.1188
     21 C          60.7945   91.6963    4.3861 C.3     1  UNL1        0.0510
     22 C          60.8303   90.5838    5.3916 C.3     1  UNL1        0.0947
     23 N          59.5613   90.1218    6.0445 N.pl3   1  UNL1       -0.2931
     24 C          58.2566   90.7724    5.6919 C.3     1  UNL1        0.0947
     25 C          58.2208   91.8848    4.6863 C.3     1  UNL1        0.0510
     26 C          59.8541   93.1983    1.6061 C.3     1  UNL1        0.1740
     27 O          59.4539   93.4593    3.0279 O.3     1  UNL1       -0.3535
     28 N          62.9506   85.6495   13.2220 N.am    1  UNL1       -0.2692
     29 C          63.2516   84.3223   12.5914 C.2     1  UNL1        0.2277
     30 C          63.4638   83.1132   13.4534 C.3     1  UNL1        0.0950
     31 O          63.3403   84.2040   11.0986 O.2     1  UNL1       -0.2747
     32 H          62.8923   85.7271   14.2017 H       1  UNL1        0.1563
@<TRIPOS>BOND
     1    26    27    1
     2    27    20    1
     3    20    21    1
     4    21    22    1
     5    22    23    1
     6    23    14    1
     7    14    15   ar
     8    15    16   ar
     9    16    17   ar
    10    17    18   ar
    11    18     1    1
    12     1     2   ar
    13     2     3   ar
    14     3    28    1
    15    28    29   am
    16    29    30    1
    17    29    31    2
    18     3     4   ar
    19     4     5   ar
    20     5     7    1
    21     7     8   ar
    22     8     9   ar
    23     9    10    1
    24     9    11   ar
    25    11    12   ar
    26    12    13    1
    27     5     6   ar
    28    18    19   ar
    29    23    24    1
    30    24    25    1
    31    25    20    1
    32    19    14   ar
    33     6     1   ar
    34    12     7   ar
    35    28    32    1
