@<TRIPOS>MOLECULE
*****
 35 38 0 0 0
SMALL
GASTEIGER

@<TRIPOS>ATOM
      1 C          63.8085   90.1131   13.3878 C.ar    1  UNL1        0.1042
      2 C          64.7739   91.2554   13.2743 C.ar    1  UNL1        0.0335
      3 C          64.9301   91.9785   11.9694 C.ar    1  UNL1        0.1261
      4 C          64.1210   91.5591   10.7780 C.ar    1  UNL1        0.0234
      5 C          63.1556   90.4168   10.8915 C.ar    1  UNL1        0.0396
      6 C          62.9994   89.6937   12.1965 C.ar    1  UNL1        0.1549
      7 S          65.8956   93.1209   11.8558 S.O2    1  UNL1        0.0751
      8 O          66.0663   92.8314   10.3940 O.2     1  UNL1       -0.1499
      9 O          65.7249   93.4105   13.3177 O.2     1  UNL1       -0.1499
     10 N          66.8610   94.2633   11.7423 N.pl3   1  UNL1       -0.1925
     11 H          67.5335   94.4112   12.4459 H       1  UNL1        0.1758
     12 C          66.8018   95.1803   10.5567 C.ar    1  UNL1        0.1977
     13 N          67.8380   95.2950    9.4782 N.ar    1  UNL1       -0.1997
     14 C          67.3726   96.3292    8.4964 C.ar    1  UNL1        0.2082
     15 N          66.0487   96.8537    8.9682 N.ar    1  UNL1       -0.1840
     16 S          65.6960   96.1436   10.2415 S.2     1  UNL1        0.0508
     17 N          63.4960   88.6670   15.9976 N.1     1  UNL1       -0.1907
     18 C          63.6522   89.3900   14.6927 C.1     1  UNL1        0.1035
     19 O          62.0339   88.5513   12.3100 O.3     1  UNL1       -0.4528
     20 C          61.3884   87.9896   11.0780 C.ar    1  UNL1        0.1453
     21 C          60.4943   88.8539   10.2392 C.ar    1  UNL1        0.0384
     22 C          59.8489   88.2921    9.0072 C.ar    1  UNL1        0.0145
     23 C          60.0975   86.8661    8.6140 C.ar    1  UNL1        0.0579
     24 CL         59.4521   86.3044    7.3820 Cl      1  UNL1       -0.0822
     25 C          60.9916   86.0018    9.4528 C.ar    1  UNL1        0.0144
     26 C          61.6371   86.5635   10.6847 C.ar    1  UNL1        0.0355
     27 C          62.5312   85.6992   11.5235 C.ar    1  UNL1        0.0073
     28 C          62.9197   84.3326   11.0424 C.ar    1  UNL1        0.0209
     29 C          63.8138   83.4683   11.8812 C.ar    1  UNL1        0.1003
     30 N          64.3194   83.9706   13.2011 N.ar    1  UNL1       -0.2296
     31 C          63.9309   85.3372   13.6821 C.ar    1  UNL1        0.1254
     32 N          64.4365   85.8395   15.0020 N.pl3   1  UNL1       -0.3426
     33 C          63.0368   86.2015   12.8434 C.ar    1  UNL1        0.0340
     34 H          65.0234   85.2722   15.5525 H       1  UNL1        0.1437
     35 H          64.1815   86.7365   15.3177 H       1  UNL1        0.1437
@<TRIPOS>BOND
     1    17    18    3
     2    18     1    1
     3     1     2   ar
     4     2     3   ar
     5     3     7    1
     6     7     8    2
     7     7     9    2
     8     7    10    1
     9    10    12    1
    10    12    13   ar
    11    13    14   ar
    12    14    15   ar
    13    15    16   ar
    14     3     4   ar
    15     4     5   ar
    16     5     6   ar
    17     6    19    1
    18    19    20    1
    19    20    21   ar
    20    21    22   ar
    21    22    23   ar
    22    23    24    1
    23    23    25   ar
    24    25    26   ar
    25    26    27    1
    26    27    28   ar
    27    28    29   ar
    28    29    30   ar
    29    30    31   ar
    30    31    32    1
    31    31    33   ar
    32     6     1   ar
    33    26    20   ar
    34    33    27   ar
    35    16    12   ar
    36    10    11    1
    37    32    34    1
    38    32    35    1
@<TRIPOS>MOLECULE
*****
 35 38 0 0 0
SMALL
GASTEIGER

@<TRIPOS>ATOM
      1 C          62.5099   89.7313   10.9164 C.ar    1  UNL1        0.1042
      2 C          63.2685   91.0216   11.0128 C.ar    1  UNL1        0.0335
      3 C          64.2594   91.2282   12.1198 C.ar    1  UNL1        0.1261
      4 C          64.4917   90.1444   13.1304 C.ar    1  UNL1        0.0234
      5 C          63.7331   88.8540   13.0340 C.ar    1  UNL1        0.0396
      6 C          62.7422   88.6474   11.9270 C.ar    1  UNL1        0.1549
      7 S          65.0180   92.5187   12.2162 S.O2    1  UNL1        0.0751
      8 O          64.7924   92.7606   10.7531 O.2     1  UNL1       -0.1499
      9 O          65.2437   92.2769   13.6792 O.2     1  UNL1       -0.1499
     10 N          65.7766   93.8091   12.3125 N.pl3   1  UNL1       -0.1925
     11 H          65.7970   94.3059   13.1622 H       1  UNL1        0.1758
     12 C          66.5041   94.3427   11.1141 C.ar    1  UNL1        0.1977
     13 N          67.5266   93.6040   10.3024 N.ar    1  UNL1       -0.1997
     14 C          67.9913   94.5134    9.2036 C.ar    1  UNL1        0.2082
     15 N          67.2560   95.8141    9.3364 N.ar    1  UNL1       -0.1840
     16 S          66.3369   95.7086   10.5171 S.2     1  UNL1        0.0508
     17 N          60.5281   89.3181    8.7025 N.1     1  UNL1       -0.1907
     18 C          61.5190   89.5247    9.8094 C.1     1  UNL1        0.1035
     19 O          61.9836   87.3569   11.8306 O.3     1  UNL1       -0.4528
     20 C          62.6736   86.0577   12.1233 C.ar    1  UNL1        0.1453
     21 C          63.2675   85.8125   13.4787 C.ar    1  UNL1        0.0384
     22 C          63.9576   84.5131   13.7713 C.ar    1  UNL1        0.0145
     23 C          64.0537   83.4590   12.7085 C.ar    1  UNL1        0.0579
     24 CL         64.7437   82.1597   13.0012 Cl      1  UNL1       -0.0822
     25 C          63.4598   83.7042   11.3531 C.ar    1  UNL1        0.0144
     26 C          62.7698   85.0035   11.0605 C.ar    1  UNL1        0.0355
     27 C          62.1759   85.2486    9.7050 C.ar    1  UNL1        0.0073
     28 C          62.9440   84.8773    8.4713 C.ar    1  UNL1        0.0209
     29 C          62.3501   85.1224    7.1159 C.ar    1  UNL1        0.1003
     30 N          60.9881   85.7390    6.9942 N.ar    1  UNL1       -0.2296
     31 C          60.2200   86.1103    8.2279 C.ar    1  UNL1        0.1254
     32 N          58.8580   86.7268    8.1062 N.pl3   1  UNL1       -0.3426
     33 C          60.8139   85.8651    9.5833 C.ar    1  UNL1        0.0340
     34 H          58.4682   86.8877    7.2166 H       1  UNL1        0.1437
     35 H          58.3538   86.9705    8.9159 H       1  UNL1        0.1437
@<TRIPOS>BOND
     1    17    18    3
     2    18     1    1
     3     1     2   ar
     4     2     3   ar
     5     3     7    1
     6     7     8    2
     7     7     9    2
     8     7    10    1
     9    10    12    1
    10    12    13   ar
    11    13    14   ar
    12    14    15   ar
    13    15    16   ar
    14     3     4   ar
    15     4     5   ar
    16     5     6   ar
    17     6    19    1
    18    19    20    1
    19    20    21   ar
    20    21    22   ar
    21    22    23   ar
    22    23    24    1
    23    23    25   ar
    24    25    26   ar
    25    26    27    1
    26    27    28   ar
    27    28    29   ar
    28    29    30   ar
    29    30    31   ar
    30    31    32    1
    31    31    33   ar
    32     6     1   ar
    33    26    20   ar
    34    33    27   ar
    35    16    12   ar
    36    10    11    1
    37    32    34    1
    38    32    35    1
@<TRIPOS>MOLECULE
*****
 35 38 0 0 0
SMALL
GASTEIGER

@<TRIPOS>ATOM
      1 C          64.0723   88.4752   13.8663 C.ar    1  UNL1        0.1042
      2 C          64.8162   89.7327   14.2058 C.ar    1  UNL1        0.0335
      3 C          64.6224   90.9663   13.3747 C.ar    1  UNL1        0.1261
      4 C          63.6847   90.9424   12.2042 C.ar    1  UNL1        0.0234
      5 C          62.9408   89.6849   11.8648 C.ar    1  UNL1        0.0396
      6 C          63.1346   88.4513   12.6958 C.ar    1  UNL1        0.1549
      7 S          65.3663   92.2239   13.7142 S.O2    1  UNL1        0.0751
      8 O          65.0935   91.9919   15.1708 O.2     1  UNL1       -0.1499
      9 O          65.6390   92.4558   12.2576 O.2     1  UNL1       -0.1499
     10 N          66.1102   93.4814   14.0537 N.pl3   1  UNL1       -0.1925
     11 H          65.6999   94.3588   13.8776 H       1  UNL1        0.1758
     12 C          67.4792   93.4020   14.6616 C.ar    1  UNL1        0.1977
     13 N          67.9758   94.2095   15.8241 N.ar    1  UNL1       -0.1997
     14 C          69.3955   93.8079   16.0948 C.ar    1  UNL1        0.2082
     15 N          69.7762   92.7521   15.0995 N.ar    1  UNL1       -0.1840
     16 S          68.5919   92.5013   14.2138 S.2     1  UNL1        0.0508
     17 N          64.4600   86.0080   15.5285 N.1     1  UNL1       -0.1907
     18 C          64.2661   87.2416   14.6974 C.1     1  UNL1        0.1035
     19 O          62.3907   87.1937   12.3563 O.3     1  UNL1       -0.4528
     20 C          61.6446   87.0906   11.0592 C.ar    1  UNL1        0.1453
     21 C          60.7167   88.1914   10.6381 C.ar    1  UNL1        0.0384
     22 C          59.9706   88.0883    9.3409 C.ar    1  UNL1        0.0145
     23 C          60.1524   86.8844    8.4648 C.ar    1  UNL1        0.0579
     24 CL         59.4063   86.7814    7.1676 Cl      1  UNL1       -0.0822
     25 C          61.0803   85.7836    8.8858 C.ar    1  UNL1        0.0144
     26 C          61.8264   85.8867   10.1830 C.ar    1  UNL1        0.0355
     27 C          62.7543   84.7859   10.6040 C.ar    1  UNL1        0.0073
     28 C          63.4595   83.9620    9.5677 C.ar    1  UNL1        0.0209
     29 C          64.3874   82.8612    9.9887 C.ar    1  UNL1        0.1003
     30 N          64.6101   82.5843   11.4461 N.ar    1  UNL1       -0.2296
     31 C          63.9048   83.4082   12.4823 C.ar    1  UNL1        0.1254
     32 N          64.1275   83.1313   13.9396 N.pl3   1  UNL1       -0.3426
     33 C          62.9769   84.5090   12.0613 C.ar    1  UNL1        0.0340
     34 H          64.7365   82.4088   14.2159 H       1  UNL1        0.1437
     35 H          63.6646   83.6720   14.6198 H       1  UNL1        0.1437
@<TRIPOS>BOND
     1    17    18    3
     2    18     1    1
     3     1     2   ar
     4     2     3   ar
     5     3     7    1
     6     7     8    2
     7     7     9    2
     8     7    10    1
     9    10    12    1
    10    12    13   ar
    11    13    14   ar
    12    14    15   ar
    13    15    16   ar
    14     3     4   ar
    15     4     5   ar
    16     5     6   ar
    17     6    19    1
    18    19    20    1
    19    20    21   ar
    20    21    22   ar
    21    22    23   ar
    22    23    24    1
    23    23    25   ar
    24    25    26   ar
    25    26    27    1
    26    27    28   ar
    27    28    29   ar
    28    29    30   ar
    29    30    31   ar
    30    31    32    1
    31    31    33   ar
    32     6     1   ar
    33    26    20   ar
    34    33    27   ar
    35    16    12   ar
    36    10    11    1
    37    32    34    1
    38    32    35    1
@<TRIPOS>MOLECULE
*****
 35 38 0 0 0
SMALL
GASTEIGER

@<TRIPOS>ATOM
      1 C          62.7112   89.5583   11.4650 C.ar    1  UNL1        0.1042
      2 C          63.4616   90.8097   11.8126 C.ar    1  UNL1        0.0335
      3 C          64.3850   90.8267   12.9946 C.ar    1  UNL1        0.1261
      4 C          64.5580   89.5923   13.8290 C.ar    1  UNL1        0.0234
      5 C          63.8076   88.3409   13.4813 C.ar    1  UNL1        0.0396
      6 C          62.8842   88.3239   12.2994 C.ar    1  UNL1        0.1549
      7 S          65.1354   92.0782   13.3422 S.O2    1  UNL1        0.0751
      8 O          64.8827   91.8250   14.7989 O.2     1  UNL1       -0.1499
      9 O          65.3880   92.3313   11.8855 O.2     1  UNL1       -0.1499
     10 N          65.8857   93.3296   13.6898 N.pl3   1  UNL1       -0.1925
     11 H          65.5073   94.2096   13.4628 H       1  UNL1        0.1758
     12 C          67.2128   93.2402   14.3834 C.ar    1  UNL1        0.1977
     13 N          67.6115   93.9846   15.6232 N.ar    1  UNL1       -0.1997
     14 C          69.0193   93.5952   15.9650 C.ar    1  UNL1        0.2082
     15 N          69.4905   92.6102   14.9364 N.ar    1  UNL1       -0.1840
     16 S          68.3740   92.3908   13.9590 S.2     1  UNL1        0.0508
     17 N          60.8644   89.5244    9.1011 N.1     1  UNL1       -0.1907
     18 C          61.7878   89.5414   10.2831 C.1     1  UNL1        0.1035
     19 O          62.1338   87.0724   11.9518 O.3     1  UNL1       -0.4528
     20 C          62.7650   85.7312   12.1812 C.ar    1  UNL1        0.1453
     21 C          63.3322   85.3897   13.5272 C.ar    1  UNL1        0.0384
     22 C          63.9635   84.0484   13.7567 C.ar    1  UNL1        0.0145
     23 C          64.0275   83.0488   12.6402 C.ar    1  UNL1        0.0579
     24 CL         64.6587   81.7076   12.8697 Cl      1  UNL1       -0.0822
     25 C          63.4603   83.3903   11.2942 C.ar    1  UNL1        0.0144
     26 C          62.8291   84.7315   11.0647 C.ar    1  UNL1        0.0355
     27 C          62.2619   85.0731    9.7188 C.ar    1  UNL1        0.0073
     28 C          62.9824   84.6516    8.4724 C.ar    1  UNL1        0.0209
     29 C          62.4152   84.9932    7.1264 C.ar    1  UNL1        0.1003
     30 N          61.1275   85.7562    7.0268 N.ar    1  UNL1       -0.2296
     31 C          60.4071   86.1776    8.2732 C.ar    1  UNL1        0.1254
     32 N          59.1195   86.9405    8.1735 N.pl3   1  UNL1       -0.3426
     33 C          60.9743   85.8360    9.6191 C.ar    1  UNL1        0.0340
     34 H          58.7472   87.1647    7.2901 H       1  UNL1        0.1437
     35 H          58.6466   87.2171    8.9916 H       1  UNL1        0.1437
@<TRIPOS>BOND
     1    17    18    3
     2    18     1    1
     3     1     2   ar
     4     2     3   ar
     5     3     7    1
     6     7     8    2
     7     7     9    2
     8     7    10    1
     9    10    12    1
    10    12    13   ar
    11    13    14   ar
    12    14    15   ar
    13    15    16   ar
    14     3     4   ar
    15     4     5   ar
    16     5     6   ar
    17     6    19    1
    18    19    20    1
    19    20    21   ar
    20    21    22   ar
    21    22    23   ar
    22    23    24    1
    23    23    25   ar
    24    25    26   ar
    25    26    27    1
    26    27    28   ar
    27    28    29   ar
    28    29    30   ar
    29    30    31   ar
    30    31    32    1
    31    31    33   ar
    32     6     1   ar
    33    26    20   ar
    34    33    27   ar
    35    16    12   ar
    36    10    11    1
    37    32    34    1
    38    32    35    1
@<TRIPOS>MOLECULE
*****
 35 38 0 0 0
SMALL
GASTEIGER

@<TRIPOS>ATOM
      1 C          62.6036   90.2775   11.3650 C.ar    1  UNL1        0.1042
      2 C          63.4090   91.5407   11.4395 C.ar    1  UNL1        0.0335
      3 C          64.5397   91.6525   12.4188 C.ar    1  UNL1        0.1261
      4 C          64.8649   90.5012   13.3236 C.ar    1  UNL1        0.0234
      5 C          64.0595   89.2380   13.2490 C.ar    1  UNL1        0.0396
      6 C          62.9288   89.1262   12.2697 C.ar    1  UNL1        0.1549
      7 S          65.3451   92.9158   12.4934 S.O2    1  UNL1        0.0751
      8 O          65.1221   93.1444   11.0278 O.2     1  UNL1       -0.1499
      9 O          65.5682   92.6872   13.9589 O.2     1  UNL1       -0.1499
     10 N          66.1505   94.1790   12.5678 N.pl3   1  UNL1       -0.1925
     11 H          66.4578   94.5162   13.4403 H       1  UNL1        0.1758
     12 C          66.4879   94.9285   11.3130 C.ar    1  UNL1        0.1977
     13 N          67.4727   94.4979   10.2667 N.ar    1  UNL1       -0.1997
     14 C          67.4932   95.5434    9.1912 C.ar    1  UNL1        0.2082
     15 N          66.5210   96.6201    9.5729 N.ar    1  UNL1       -0.1840
     16 S          65.8997   96.2400   10.8843 S.2     1  UNL1        0.0508
     17 N          60.3422   90.0538    9.4064 N.1     1  UNL1       -0.1907
     18 C          61.4729   90.1656   10.3857 C.1     1  UNL1        0.1035
     19 O          62.1234   87.8629   12.1952 O.3     1  UNL1       -0.4528
     20 C          62.2980   86.9295   11.0341 C.ar    1  UNL1        0.1453
     21 C          62.0201   87.4069    9.6396 C.ar    1  UNL1        0.0384
     22 C          62.1948   86.4734    8.4784 C.ar    1  UNL1        0.0145
     23 C          62.6474   85.0625    8.7119 C.ar    1  UNL1        0.0579
     24 CL         62.8220   84.1291    7.5509 Cl      1  UNL1       -0.0822
     25 C          62.9253   84.5851   10.1065 C.ar    1  UNL1        0.0144
     26 C          62.7506   85.5185   11.2676 C.ar    1  UNL1        0.0355
     27 C          63.0286   85.0411   12.6622 C.ar    1  UNL1        0.0073
     28 C          63.8206   85.8983   13.6045 C.ar    1  UNL1        0.0209
     29 C          64.0985   85.4209   14.9991 C.ar    1  UNL1        0.1003
     30 N          63.5844   84.0862   15.4513 N.ar    1  UNL1       -0.2296
     31 C          62.7924   83.2290   14.5090 C.ar    1  UNL1        0.1254
     32 N          62.2784   81.8945   14.9612 N.pl3   1  UNL1       -0.3426
     33 C          62.5145   83.7065   13.1144 C.ar    1  UNL1        0.0340
     34 H          62.4608   81.5811   15.8765 H       1  UNL1        0.1437
     35 H          61.7586   81.3318   14.3427 H       1  UNL1        0.1437
@<TRIPOS>BOND
     1    17    18    3
     2    18     1    1
     3     1     2   ar
     4     2     3   ar
     5     3     7    1
     6     7     8    2
     7     7     9    2
     8     7    10    1
     9    10    12    1
    10    12    13   ar
    11    13    14   ar
    12    14    15   ar
    13    15    16   ar
    14     3     4   ar
    15     4     5   ar
    16     5     6   ar
    17     6    19    1
    18    19    20    1
    19    20    21   ar
    20    21    22   ar
    21    22    23   ar
    22    23    24    1
    23    23    25   ar
    24    25    26   ar
    25    26    27    1
    26    27    28   ar
    27    28    29   ar
    28    29    30   ar
    29    30    31   ar
    30    31    32    1
    31    31    33   ar
    32     6     1   ar
    33    26    20   ar
    34    33    27   ar
    35    16    12   ar
    36    10    11    1
    37    32    34    1
    38    32    35    1
@<TRIPOS>MOLECULE
*****
 35 38 0 0 0
SMALL
GASTEIGER

@<TRIPOS>ATOM
      1 C          62.4192   89.7841   12.0960 C.ar    1  UNL1        0.1042
      2 C          63.2068   91.0138   12.4385 C.ar    1  UNL1        0.0335
      3 C          64.3597   90.9242   13.3938 C.ar    1  UNL1        0.1261
      4 C          64.7251   89.6047   14.0066 C.ar    1  UNL1        0.0234
      5 C          63.9375   88.3750   13.6640 C.ar    1  UNL1        0.0396
      6 C          62.7846   88.4647   12.7087 C.ar    1  UNL1        0.1549
      7 S          65.1474   92.1540   13.7363 S.O2    1  UNL1        0.0751
      8 O          65.2885   92.4700   12.2768 O.2     1  UNL1       -0.1499
      9 O          65.0062   91.8380   15.1958 O.2     1  UNL1       -0.1499
     10 N          65.9349   93.3838   14.0787 N.pl3   1  UNL1       -0.1925
     11 H          65.5363   94.2749   13.9515 H       1  UNL1        0.1758
     12 C          67.3299   93.2559   14.6152 C.ar    1  UNL1        0.1977
     13 N          67.8976   94.0066   15.7831 N.ar    1  UNL1       -0.1997
     14 C          69.3207   93.5695   15.9676 C.ar    1  UNL1        0.2082
     15 N          69.6324   92.5487   14.9136 N.ar    1  UNL1       -0.1840
     16 S          68.4020   92.3549   14.0778 S.2     1  UNL1        0.0508
     17 N          60.1132   89.9635   10.1853 N.1     1  UNL1       -0.1907
     18 C          61.2662   89.8738   11.1407 C.1     1  UNL1        0.1035
     19 O          61.9970   87.2348   12.3662 O.3     1  UNL1       -0.4528
     20 C          62.2663   86.5047   11.0839 C.ar    1  UNL1        0.1453
     21 C          61.9620   87.1601    9.7695 C.ar    1  UNL1        0.0384
     22 C          62.2313   86.4298    8.4871 C.ar    1  UNL1        0.0145
     23 C          62.8050   85.0443    8.5193 C.ar    1  UNL1        0.0579
     24 CL         63.0744   84.3142    7.2370 Cl      1  UNL1       -0.0822
     25 C          63.1094   84.3889    9.8338 C.ar    1  UNL1        0.0144
     26 C          62.8400   85.1190   11.1161 C.ar    1  UNL1        0.0355
     27 C          63.1444   84.4636   12.4305 C.ar    1  UNL1        0.0073
     28 C          64.1948   85.0422   13.3316 C.ar    1  UNL1        0.0209
     29 C          64.4992   84.3868   14.6461 C.ar    1  UNL1        0.1003
     30 N          63.7531   83.1528   15.0595 N.ar    1  UNL1       -0.2296
     31 C          62.7027   82.5744   14.1584 C.ar    1  UNL1        0.1254
     32 N          61.9566   81.3405   14.5718 N.pl3   1  UNL1       -0.3426
     33 C          62.3983   83.2298   12.8439 C.ar    1  UNL1        0.0340
     34 H          62.1564   80.9103   15.4345 H       1  UNL1        0.1437
     35 H          61.2672   80.9608   13.9804 H       1  UNL1        0.1437
@<TRIPOS>BOND
     1    17    18    3
     2    18     1    1
     3     1     2   ar
     4     2     3   ar
     5     3     7    1
     6     7     8    2
     7     7     9    2
     8     7    10    1
     9    10    12    1
    10    12    13   ar
    11    13    14   ar
    12    14    15   ar
    13    15    16   ar
    14     3     4   ar
    15     4     5   ar
    16     5     6   ar
    17     6    19    1
    18    19    20    1
    19    20    21   ar
    20    21    22   ar
    21    22    23   ar
    22    23    24    1
    23    23    25   ar
    24    25    26   ar
    25    26    27    1
    26    27    28   ar
    27    28    29   ar
    28    29    30   ar
    29    30    31   ar
    30    31    32    1
    31    31    33   ar
    32     6     1   ar
    33    26    20   ar
    34    33    27   ar
    35    16    12   ar
    36    10    11    1
    37    32    34    1
    38    32    35    1
@<TRIPOS>MOLECULE
*****
 35 38 0 0 0
SMALL
GASTEIGER

@<TRIPOS>ATOM
      1 C          63.4843   89.5956   12.2042 C.ar    1  UNL1        0.1042
      2 C          63.1771   88.1277   12.2333 C.ar    1  UNL1        0.0335
      3 C          63.5935   87.2975   13.4111 C.ar    1  UNL1        0.1261
      4 C          64.3172   87.9351   14.5599 C.ar    1  UNL1        0.0234
      5 C          64.6245   89.4030   14.5308 C.ar    1  UNL1        0.0396
      6 C          64.2081   90.2332   13.3530 C.ar    1  UNL1        0.1549
      7 S          63.2862   85.8295   13.4402 S.O2    1  UNL1        0.0751
      8 O          64.3494   85.6276   14.4788 O.2     1  UNL1       -0.1499
      9 O          62.2230   86.0315   12.4016 O.2     1  UNL1       -0.1499
     10 N          62.9789   84.3617   13.4693 N.pl3   1  UNL1       -0.1925
     11 H          62.5576   83.9626   14.2645 H       1  UNL1        0.1758
     12 C          63.3137   83.5017   12.2866 C.ar    1  UNL1        0.1977
     13 N          64.2477   83.8632   11.1699 N.ar    1  UNL1       -0.1997
     14 C          64.2844   82.7143   10.2062 C.ar    1  UNL1        0.2082
     15 N          63.3731   81.6428   10.7274 N.ar    1  UNL1       -0.1840
     16 S          62.7732   82.1295   12.0131 S.2     1  UNL1        0.0508
     17 N          62.6514   91.2561    9.8486 N.1     1  UNL1       -0.1907
     18 C          63.0679   90.4259   11.0264 C.1     1  UNL1        0.1035
     19 O          64.5154   91.7012   13.3239 O.3     1  UNL1       -0.4528
     20 C          65.6292   92.2510   14.1648 C.ar    1  UNL1        0.1453
     21 C          65.6353   92.0186   15.6466 C.ar    1  UNL1        0.0384
     22 C          66.7492   92.5685   16.4875 C.ar    1  UNL1        0.0145
     23 C          67.8568   93.3508   15.8464 C.ar    1  UNL1        0.0579
     24 CL         68.9706   93.9007   16.6873 Cl      1  UNL1       -0.0822
     25 C          67.8507   93.5833   14.3646 C.ar    1  UNL1        0.0144
     26 C          66.7369   93.0334   13.5237 C.ar    1  UNL1        0.0355
     27 C          66.7308   93.2659   12.0419 C.ar    1  UNL1        0.0073
     28 C          67.3970   92.2826   11.1257 C.ar    1  UNL1        0.0209
     29 C          67.3909   92.5151    9.6438 C.ar    1  UNL1        0.1003
     30 N          66.7185   93.7309    9.0782 N.ar    1  UNL1       -0.2296
     31 C          66.0523   94.7141    9.9944 C.ar    1  UNL1        0.1254
     32 N          65.3800   95.9298    9.4287 N.pl3   1  UNL1       -0.3426
     33 C          66.0585   94.4816   11.4762 C.ar    1  UNL1        0.0340
     34 H          65.3760   96.0824    8.4561 H       1  UNL1        0.1437
     35 H          64.9428   96.5752   10.0300 H       1  UNL1        0.1437
@<TRIPOS>BOND
     1    17    18    3
     2    18     1    1
     3     1     2   ar
     4     2     3   ar
     5     3     7    1
     6     7     8    2
     7     7     9    2
     8     7    10    1
     9    10    12    1
    10    12    13   ar
    11    13    14   ar
    12    14    15   ar
    13    15    16   ar
    14     3     4   ar
    15     4     5   ar
    16     5     6   ar
    17     6    19    1
    18    19    20    1
    19    20    21   ar
    20    21    22   ar
    21    22    23   ar
    22    23    24    1
    23    23    25   ar
    24    25    26   ar
    25    26    27    1
    26    27    28   ar
    27    28    29   ar
    28    29    30   ar
    29    30    31   ar
    30    31    32    1
    31    31    33   ar
    32     6     1   ar
    33    26    20   ar
    34    33    27   ar
    35    16    12   ar
    36    10    11    1
    37    32    34    1
    38    32    35    1
@<TRIPOS>MOLECULE
*****
 35 38 0 0 0
SMALL
GASTEIGER

@<TRIPOS>ATOM
      1 C          63.3755   90.5201   13.5333 C.ar    1  UNL1        0.1042
      2 C          62.6727   89.2960   13.0258 C.ar    1  UNL1        0.0335
      3 C          62.5817   89.0408   11.5505 C.ar    1  UNL1        0.1261
      4 C          63.1935   90.0098   10.5826 C.ar    1  UNL1        0.0234
      5 C          63.8963   91.2339   11.0901 C.ar    1  UNL1        0.0396
      6 C          63.9873   91.4891   12.5654 C.ar    1  UNL1        0.1549
      7 S          61.8789   87.8166   11.0430 S.O2    1  UNL1        0.0751
      8 O          61.0526   88.6705   10.1277 O.2     1  UNL1       -0.1499
      9 O          62.7053   86.9627   11.9584 O.2     1  UNL1       -0.1499
     10 N          61.1761   86.5925   10.5356 N.pl3   1  UNL1       -0.1925
     11 H          60.4701   86.1704   11.0765 H       1  UNL1        0.1758
     12 C          61.5490   86.0114    9.2039 C.ar    1  UNL1        0.1977
     13 N          62.8687   85.3919    8.8507 N.ar    1  UNL1       -0.1997
     14 C          62.8030   84.9454    7.4201 C.ar    1  UNL1        0.2082
     15 N          61.4428   85.2890    6.8893 N.ar    1  UNL1       -0.1840
     16 S          60.6678   85.9478    7.9917 S.2     1  UNL1        0.0508
     17 N          63.5575   91.0305   16.4840 N.1     1  UNL1       -0.1907
     18 C          63.4665   90.7753   15.0086 C.1     1  UNL1        0.1035
     19 O          64.6901   92.7133   13.0729 O.3     1  UNL1       -0.4528
     20 C          65.9288   92.5752   13.9074 C.ar    1  UNL1        0.1453
     21 C          65.8163   92.3825   15.3907 C.ar    1  UNL1        0.0384
     22 C          67.0551   92.2444   16.2252 C.ar    1  UNL1        0.0145
     23 C          68.4064   92.2990   15.5764 C.ar    1  UNL1        0.0579
     24 CL         69.6451   92.1609   16.4110 Cl      1  UNL1       -0.0822
     25 C          68.5189   92.4917   14.0931 C.ar    1  UNL1        0.0144
     26 C          67.2802   92.6298   13.2586 C.ar    1  UNL1        0.0355
     27 C          67.3928   92.8225   11.7753 C.ar    1  UNL1        0.0073
     28 C          68.1908   91.8554   10.9518 C.ar    1  UNL1        0.0209
     29 C          68.3033   92.0481    9.4685 C.ar    1  UNL1        0.1003
     30 N          67.6179   93.2079    8.8087 N.ar    1  UNL1       -0.2296
     31 C          66.8200   94.1749    9.6322 C.ar    1  UNL1        0.1254
     32 N          66.1347   95.3345    8.9724 N.pl3   1  UNL1       -0.3426
     33 C          66.7075   93.9822   11.1155 C.ar    1  UNL1        0.0340
     34 H          66.2086   95.4610    7.9989 H       1  UNL1        0.1437
     35 H          65.6110   95.9692    9.5129 H       1  UNL1        0.1437
@<TRIPOS>BOND
     1    17    18    3
     2    18     1    1
     3     1     2   ar
     4     2     3   ar
     5     3     7    1
     6     7     8    2
     7     7     9    2
     8     7    10    1
     9    10    12    1
    10    12    13   ar
    11    13    14   ar
    12    14    15   ar
    13    15    16   ar
    14     3     4   ar
    15     4     5   ar
    16     5     6   ar
    17     6    19    1
    18    19    20    1
    19    20    21   ar
    20    21    22   ar
    21    22    23   ar
    22    23    24    1
    23    23    25   ar
    24    25    26   ar
    25    26    27    1
    26    27    28   ar
    27    28    29   ar
    28    29    30   ar
    29    30    31   ar
    30    31    32    1
    31    31    33   ar
    32     6     1   ar
    33    26    20   ar
    34    33    27   ar
    35    16    12   ar
    36    10    11    1
    37    32    34    1
    38    32    35    1
@<TRIPOS>MOLECULE
*****
 35 38 0 0 0
SMALL
GASTEIGER

@<TRIPOS>ATOM
      1 C          61.8564   89.5783   10.5683 C.ar    1  UNL1        0.1042
      2 C          62.6874   90.8000   10.8263 C.ar    1  UNL1        0.0335
      3 C          63.7411   90.7788   11.8936 C.ar    1  UNL1        0.1261
      4 C          63.9638   89.5357   12.7030 C.ar    1  UNL1        0.0234
      5 C          63.1328   88.3139   12.4451 C.ar    1  UNL1        0.0396
      6 C          62.0790   88.3352   11.3777 C.ar    1  UNL1        0.1549
      7 S          64.5722   92.0006   12.1515 S.O2    1  UNL1        0.0751
      8 O          64.5259   92.3403   10.6912 O.2     1  UNL1       -0.1499
      9 O          64.6184   91.6610   13.6118 O.2     1  UNL1       -0.1499
     10 N          65.4032   93.2224   12.4094 N.pl3   1  UNL1       -0.1925
     11 H          65.3242   93.6995   13.2670 H       1  UNL1        0.1758
     12 C          66.3546   93.7175   11.3606 C.ar    1  UNL1        0.1977
     13 N          67.3912   92.8964   10.6525 N.ar    1  UNL1       -0.1997
     14 C          68.1137   93.7919    9.6901 C.ar    1  UNL1        0.2082
     15 N          67.5236   95.1664    9.8034 N.ar    1  UNL1       -0.1840
     16 S          66.4364   95.1203   10.8359 S.2     1  UNL1        0.0508
     17 N          59.7489   89.6208    8.4336 N.1     1  UNL1       -0.1907
     18 C          60.8027   89.5995    9.5010 C.1     1  UNL1        0.1035
     19 O          61.2480   87.1133   11.1198 O.3     1  UNL1       -0.4528
     20 C          61.3814   86.3762    9.8203 C.ar    1  UNL1        0.1453
     21 C          60.6894   86.8894    8.5924 C.ar    1  UNL1        0.0384
     22 C          60.8228   86.1522    7.2929 C.ar    1  UNL1        0.0145
     23 C          61.6482   84.9018    7.2213 C.ar    1  UNL1        0.0579
     24 CL         61.7816   84.1646    5.9218 Cl      1  UNL1       -0.0822
     25 C          62.3401   84.3885    8.4492 C.ar    1  UNL1        0.0144
     26 C          62.2067   85.1257    9.7487 C.ar    1  UNL1        0.0355
     27 C          62.8987   84.6124   10.9766 C.ar    1  UNL1        0.0073
     28 C          64.0920   83.7132   10.8444 C.ar    1  UNL1        0.0209
     29 C          64.7840   83.1999   12.0723 C.ar    1  UNL1        0.1003
     30 N          64.2826   83.5858   13.4324 N.ar    1  UNL1       -0.2296
     31 C          63.0893   84.4850   13.5645 C.ar    1  UNL1        0.1254
     32 N          62.5880   84.8709   14.9245 N.pl3   1  UNL1       -0.3426
     33 C          62.3974   84.9983   12.3366 C.ar    1  UNL1        0.0340
     34 H          63.0422   84.5341   15.7304 H       1  UNL1        0.1437
     35 H          61.8048   85.4611   15.0112 H       1  UNL1        0.1437
@<TRIPOS>BOND
     1    17    18    3
     2    18     1    1
     3     1     2   ar
     4     2     3   ar
     5     3     7    1
     6     7     8    2
     7     7     9    2
     8     7    10    1
     9    10    12    1
    10    12    13   ar
    11    13    14   ar
    12    14    15   ar
    13    15    16   ar
    14     3     4   ar
    15     4     5   ar
    16     5     6   ar
    17     6    19    1
    18    19    20    1
    19    20    21   ar
    20    21    22   ar
    21    22    23   ar
    22    23    24    1
    23    23    25   ar
    24    25    26   ar
    25    26    27    1
    26    27    28   ar
    27    28    29   ar
    28    29    30   ar
    29    30    31   ar
    30    31    32    1
    31    31    33   ar
    32     6     1   ar
    33    26    20   ar
    34    33    27   ar
    35    16    12   ar
    36    10    11    1
    37    32    34    1
    38    32    35    1
