@<TRIPOS>MOLECULE
*****
 40 44 0 0 0
SMALL
GASTEIGER

@<TRIPOS>ATOM
      1 C          63.2525   84.0550   11.9014 C.ar    1  UNL1        0.1536
      2 N          63.3094   85.2400   12.8193 N.ar    1  UNL1       -0.2102
      3 C          63.1678   85.0489   14.3002 C.ar    1  UNL1        0.1643
      4 N          62.9694   83.6729   14.8634 N.ar    1  UNL1       -0.2184
      5 C          62.9126   82.4879   13.9455 C.ar    1  UNL1        0.1341
      6 S          62.7287   81.0226   14.2085 S.2     1  UNL1       -0.0453
      7 C          62.7566   80.3081   12.8899 C.ar    1  UNL1        0.1360
      8 N          62.9577   81.3317   11.8120 N.ar    1  UNL1       -0.2319
      9 C          63.0541   82.6789   12.4645 C.ar    1  UNL1        0.1372
     10 C          63.2247   86.2340   15.2182 C.ar    1  UNL1        0.0360
     11 C          62.9020   86.0712   16.6740 C.ar    1  UNL1        0.0031
     12 C          62.9589   87.2562   17.5919 C.ar    1  UNL1        0.0002
     13 C          63.3384   88.6040   17.0540 C.ar    1  UNL1        0.0045
     14 C          63.6611   88.7668   15.5982 C.ar    1  UNL1        0.0538
     15 C          63.6042   87.5818   14.6802 C.ar    1  UNL1        0.0076
     16 C          64.0406   90.1146   15.0602 C.2     1  UNL1        0.2495
     17 O          63.4948   91.3576   15.6980 O.2     1  UNL1       -0.2698
     18 N          64.9660   90.2193   13.8843 N.am    1  UNL1       -0.2804
     19 H          65.3242   89.4034   13.4656 H       1  UNL1        0.1552
     20 C          65.3456   91.5671   13.3463 C.ar    1  UNL1        0.0505
     21 C          66.0966   92.5355   14.2112 C.ar    1  UNL1        0.0147
     22 C          66.4761   93.8833   13.6731 C.ar    1  UNL1        0.0024
     23 C          66.1047   94.2626   12.2702 C.ar    1  UNL1        0.0141
     24 C          65.3537   93.2941   11.4053 C.ar    1  UNL1        0.0024
     25 C          64.9741   91.9464   11.9433 C.ar    1  UNL1        0.0147
     26 C          66.4843   95.6104   11.7321 C.2     1  UNL1        0.0729
     27 O          66.0853   96.8528   12.4717 O.co2   1  UNL1       -0.5446
     28 O          67.2629   95.7156   10.4544 O.co2   1  UNL1       -0.5446
     29 N          63.3941   84.2460   10.4203 N.pl3   1  UNL1       -0.2965
     30 H          64.1466   83.8309    9.9401 H       1  UNL1        0.1537
     31 C          60.3789   86.7166    8.1720 C.ar    1  UNL1        0.1725
     32 C          61.2537   85.7470    7.4343 C.ar    1  UNL1        0.0413
     33 C          62.2589   84.9234    8.1837 C.ar    1  UNL1        0.0180
     34 C          62.3890   85.0696    9.6709 C.ar    1  UNL1        0.0526
     35 C          61.5141   86.0392   10.4087 C.ar    1  UNL1        0.0547
     36 C          60.5090   86.8627    9.6593 C.ar    1  UNL1        0.1736
     37 C          59.5992   89.0114    7.2359 C.3     1  UNL1        0.2526
     38 O          59.3738   87.5402    7.4226 O.3     1  UNL1       -0.4684
     39 O          59.6341   87.8324   10.3971 O.3     1  UNL1       -0.4683
     40 C          60.2461   88.8358   11.3291 C.3     1  UNL1        0.2526
@<TRIPOS>UNITY_ATOM_ATTR
27 1
charge -1
@<TRIPOS>BOND
     1    37    38    1
     2    38    31    1
     3    31    32   ar
     4    32    33   ar
     5    33    34   ar
     6    34    29    1
     7    29     1    1
     8     1     2   ar
     9     2     3   ar
    10     3    10    1
    11    10    11   ar
    12    11    12   ar
    13    12    13   ar
    14    13    14   ar
    15    14    16    1
    16    16    17    2
    17    16    18   am
    18    18    20    1
    19    20    21   ar
    20    21    22   ar
    21    22    23   ar
    22    23    26    1
    23    26    27   ar
    24    26    28   ar
    25    23    24   ar
    26    24    25   ar
    27    14    15   ar
    28     3     4   ar
    29     4     5   ar
    30     5     6   ar
    31     6     7   ar
    32     7     8   ar
    33     8     9   ar
    34    34    35   ar
    35    35    36   ar
    36    36    39    1
    37    39    40    1
    38    36    31   ar
    39     9     1   ar
    40    15    10   ar
    41     9     5   ar
    42    25    20   ar
    43    29    30    1
    44    18    19    1
@<TRIPOS>MOLECULE
*****
 40 44 0 0 0
SMALL
GASTEIGER

@<TRIPOS>ATOM
      1 C          63.3967   84.0052   12.0029 C.ar    1  UNL1        0.1536
      2 N          63.4358   85.2003   12.9085 N.ar    1  UNL1       -0.2102
      3 C          63.2156   85.0318   14.3825 C.ar    1  UNL1        0.1643
      4 N          62.9563   83.6682   14.9512 N.ar    1  UNL1       -0.2184
      5 C          62.9172   82.4730   14.0456 C.ar    1  UNL1        0.1341
      6 S          62.6853   81.0160   14.3162 S.2     1  UNL1       -0.0453
      7 C          62.7622   80.2840   13.0092 C.ar    1  UNL1        0.1360
      8 N          63.0416   81.2886   11.9309 N.ar    1  UNL1       -0.2319
      9 C          63.1374   82.6415   12.5715 C.ar    1  UNL1        0.1372
     10 C          63.2547   86.2271   15.2882 C.ar    1  UNL1        0.0360
     11 C          62.9091   86.0794   16.7403 C.ar    1  UNL1        0.0031
     12 C          62.9482   87.2745   17.6459 C.ar    1  UNL1        0.0002
     13 C          63.3329   88.6173   17.0993 C.ar    1  UNL1        0.0045
     14 C          63.6786   88.7650   15.6472 C.ar    1  UNL1        0.0538
     15 C          63.6395   87.5699   14.7416 C.ar    1  UNL1        0.0076
     16 C          64.0634   90.1079   15.1006 C.2     1  UNL1        0.2495
     17 O          63.5923   91.3582   15.7822 O.2     1  UNL1       -0.2698
     18 N          64.9193   90.2003   13.8722 N.am    1  UNL1       -0.2804
     19 H          65.2286   89.3797   13.4248 H       1  UNL1        0.1552
     20 C          65.3041   91.5431   13.3256 C.ar    1  UNL1        0.0505
     21 C          64.9009   91.9297   11.9335 C.ar    1  UNL1        0.0147
     22 C          65.2857   93.2726   11.3869 C.ar    1  UNL1        0.0024
     23 C          66.0738   94.2286   12.2322 C.ar    1  UNL1        0.0141
     24 C          66.4771   93.8420   13.6243 C.ar    1  UNL1        0.0024
     25 C          66.0922   92.4992   14.1710 C.ar    1  UNL1        0.0147
     26 C          66.4586   95.5715   11.6856 C.2     1  UNL1        0.0729
     27 O          67.3142   95.6640   10.4571 O.co2   1  UNL1       -0.5446
     28 O          65.9878   96.8218   12.3676 O.co2   1  UNL1       -0.5446
     29 N          63.6169   84.1736   10.5287 N.pl3   1  UNL1       -0.2965
     30 H          64.4176   83.7897   10.1036 H       1  UNL1        0.1537
     31 C          60.6178   86.4340    8.0496 C.ar    1  UNL1        0.1725
     32 C          60.8775   86.8426    9.4693 C.ar    1  UNL1        0.0413
     33 C          61.8772   86.0891   10.2957 C.ar    1  UNL1        0.0180
     34 C          62.6172   84.9271    9.7024 C.ar    1  UNL1        0.0526
     35 C          62.3576   84.5185    8.2826 C.ar    1  UNL1        0.0547
     36 C          61.3579   85.2719    7.4562 C.ar    1  UNL1        0.1736
     37 C          59.4293   88.6606    7.4334 C.3     1  UNL1        0.2526
     38 O          59.6181   87.1875    7.2232 O.3     1  UNL1       -0.4684
     39 O          61.0982   84.8634    6.0365 O.3     1  UNL1       -0.4683
     40 C          62.2098   84.2969    5.2038 C.3     1  UNL1        0.2526
@<TRIPOS>UNITY_ATOM_ATTR
27 1
charge -1
@<TRIPOS>BOND
     1    37    38    1
     2    38    31    1
     3    31    32   ar
     4    32    33   ar
     5    33    34   ar
     6    34    29    1
     7    29     1    1
     8     1     2   ar
     9     2     3   ar
    10     3    10    1
    11    10    11   ar
    12    11    12   ar
    13    12    13   ar
    14    13    14   ar
    15    14    16    1
    16    16    17    2
    17    16    18   am
    18    18    20    1
    19    20    21   ar
    20    21    22   ar
    21    22    23   ar
    22    23    26    1
    23    26    27   ar
    24    26    28   ar
    25    23    24   ar
    26    24    25   ar
    27    14    15   ar
    28     3     4   ar
    29     4     5   ar
    30     5     6   ar
    31     6     7   ar
    32     7     8   ar
    33     8     9   ar
    34    34    35   ar
    35    35    36   ar
    36    36    39    1
    37    39    40    1
    38    36    31   ar
    39     9     1   ar
    40    15    10   ar
    41     9     5   ar
    42    25    20   ar
    43    29    30    1
    44    18    19    1
@<TRIPOS>MOLECULE
*****
 40 44 0 0 0
SMALL
GASTEIGER

@<TRIPOS>ATOM
      1 C          63.9287   91.0204   12.6242 C.ar    1  UNL1        0.1536
      2 N          63.5416   89.7695   13.3559 N.ar    1  UNL1       -0.2102
      3 C          64.1862   89.4390   14.6693 C.ar    1  UNL1        0.1643
      4 N          65.2180   90.3593   15.2511 N.ar    1  UNL1       -0.2184
      5 C          65.6051   91.6102   14.5193 C.ar    1  UNL1        0.1341
      6 S          66.5835   92.7002   14.8429 S.2     1  UNL1       -0.0453
      7 C          66.5434   93.7044   13.7294 C.ar    1  UNL1        0.1360
      8 N          65.5404   93.2351   12.7176 N.ar    1  UNL1       -0.2319
      9 C          64.9605   91.9407   13.2059 C.ar    1  UNL1        0.1372
     10 C          63.7990   88.1881   15.4011 C.ar    1  UNL1        0.0360
     11 C          63.3836   88.2594   16.8406 C.ar    1  UNL1        0.0031
     12 C          62.9965   87.0085   17.5724 C.ar    1  UNL1        0.0002
     13 C          63.0248   85.6864   16.8646 C.ar    1  UNL1        0.0045
     14 C          63.4402   85.6150   15.4250 C.ar    1  UNL1        0.0538
     15 C          63.8273   86.8659   14.6933 C.ar    1  UNL1        0.0076
     16 C          63.4685   84.2928   14.7171 C.2     1  UNL1        0.2495
     17 O          64.1492   83.1166   15.3520 O.2     1  UNL1       -0.2698
     18 N          62.8162   84.1470   13.3743 N.am    1  UNL1       -0.2804
     19 H          62.3694   84.9190   12.9576 H       1  UNL1        0.1552
     20 C          62.8445   82.8249   12.6664 C.ar    1  UNL1        0.0505
     21 C          63.3733   82.7354   11.2656 C.ar    1  UNL1        0.0147
     22 C          63.4015   81.4131   10.5577 C.ar    1  UNL1        0.0024
     23 C          62.9010   80.1806   11.2505 C.ar    1  UNL1        0.0141
     24 C          62.3722   80.2701   12.6514 C.ar    1  UNL1        0.0024
     25 C          62.3439   81.5922   13.3593 C.ar    1  UNL1        0.0147
     26 C          62.9293   78.8584   10.5426 C.2     1  UNL1        0.0729
     27 O          62.6967   77.5913   11.3108 O.co2   1  UNL1       -0.5446
     28 O          63.1902   78.8035    9.0665 O.co2   1  UNL1       -0.5446
     29 N          63.2840   91.3509   11.3107 N.pl3   1  UNL1       -0.2965
     30 H          63.5258   92.1803   10.8386 H       1  UNL1        0.1537
     31 C          60.2450   88.5515    9.5282 C.ar    1  UNL1        0.1725
     32 C          59.8135   89.8843   10.0639 C.ar    1  UNL1        0.0413
     33 C          60.8265   90.8176   10.6581 C.ar    1  UNL1        0.0180
     34 C          62.2710   90.4178   10.7166 C.ar    1  UNL1        0.0526
     35 C          62.7027   89.0848   10.1808 C.ar    1  UNL1        0.0547
     36 C          61.6897   88.1517    9.5867 C.ar    1  UNL1        0.1736
     37 C          59.1302   87.4717    7.4447 C.3     1  UNL1        0.2526
     38 O          59.2320   87.6182    8.9340 O.3     1  UNL1       -0.4684
     39 O          62.1212   86.8187    9.0509 O.3     1  UNL1       -0.4683
     40 C          62.0148   85.5945    9.9112 C.3     1  UNL1        0.2526
@<TRIPOS>UNITY_ATOM_ATTR
27 1
charge -1
@<TRIPOS>BOND
     1    37    38    1
     2    38    31    1
     3    31    32   ar
     4    32    33   ar
     5    33    34   ar
     6    34    29    1
     7    29     1    1
     8     1     2   ar
     9     2     3   ar
    10     3    10    1
    11    10    11   ar
    12    11    12   ar
    13    12    13   ar
    14    13    14   ar
    15    14    16    1
    16    16    17    2
    17    16    18   am
    18    18    20    1
    19    20    21   ar
    20    21    22   ar
    21    22    23   ar
    22    23    26    1
    23    26    27   ar
    24    26    28   ar
    25    23    24   ar
    26    24    25   ar
    27    14    15   ar
    28     3     4   ar
    29     4     5   ar
    30     5     6   ar
    31     6     7   ar
    32     7     8   ar
    33     8     9   ar
    34    34    35   ar
    35    35    36   ar
    36    36    39    1
    37    39    40    1
    38    36    31   ar
    39     9     1   ar
    40    15    10   ar
    41     9     5   ar
    42    25    20   ar
    43    29    30    1
    44    18    19    1
@<TRIPOS>MOLECULE
*****
 40 44 0 0 0
SMALL
GASTEIGER

@<TRIPOS>ATOM
      1 C          63.0763   85.5959   12.0825 C.ar    1  UNL1        0.1536
      2 N          63.2791   86.9818   12.6192 N.ar    1  UNL1       -0.2102
      3 C          63.6770   87.1805   14.0517 C.ar    1  UNL1        0.1643
      4 N          63.8721   85.9933   14.9476 N.ar    1  UNL1       -0.2184
      5 C          63.6693   84.6074   14.4109 C.ar    1  UNL1        0.1341
      6 S          63.7881   83.2560   15.0508 S.2     1  UNL1       -0.0453
      7 C          63.4636   82.2220   14.0137 C.ar    1  UNL1        0.1360
      8 N          63.1443   82.9344   12.7328 N.ar    1  UNL1       -0.2319
      9 C          63.2714   84.4087   12.9783 C.ar    1  UNL1        0.1372
     10 C          63.8798   88.5665   14.5884 C.ar    1  UNL1        0.0360
     11 C          63.5367   88.8758   16.0155 C.ar    1  UNL1        0.0031
     12 C          63.7395   90.2617   16.5523 C.ar    1  UNL1        0.0002
     13 C          64.2854   91.3384   15.6619 C.ar    1  UNL1        0.0045
     14 C          64.6285   91.0291   14.2348 C.ar    1  UNL1        0.0538
     15 C          64.4257   89.6432   13.6980 C.ar    1  UNL1        0.0076
     16 C          65.1744   92.1058   13.3443 C.2     1  UNL1        0.2495
     17 O          65.8434   93.3071   13.9435 O.2     1  UNL1       -0.2698
     18 N          65.0513   91.9809   11.8546 N.am    1  UNL1       -0.2804
     19 H          64.6122   91.1924   11.4613 H       1  UNL1        0.1552
     20 C          65.5972   93.0575   10.9641 C.ar    1  UNL1        0.0505
     21 C          64.9428   94.4068   10.9310 C.ar    1  UNL1        0.0147
     22 C          65.4888   95.4834   10.0404 C.ar    1  UNL1        0.0024
     23 C          66.6889   95.2106    9.1831 C.ar    1  UNL1        0.0141
     24 C          67.3433   93.8613    9.2163 C.ar    1  UNL1        0.0024
     25 C          66.7974   92.7847   10.1067 C.ar    1  UNL1        0.0147
     26 C          67.2349   96.2872    8.2926 C.2     1  UNL1        0.0729
     27 O          68.5982   96.8559    8.5526 O.co2   1  UNL1       -0.5446
     28 O          66.4173   96.7950    7.1420 O.co2   1  UNL1       -0.5446
     29 N          62.6784   85.3971   10.6500 N.pl3   1  UNL1       -0.2965
     30 H          62.9735   84.5933   10.1641 H       1  UNL1        0.1537
     31 C          60.1358   88.4749    8.5733 C.ar    1  UNL1        0.1725
     32 C          60.2973   87.1086    7.9757 C.ar    1  UNL1        0.0413
     33 C          61.1449   86.0826    8.6680 C.ar    1  UNL1        0.0180
     34 C          61.8309   86.4230    9.9577 C.ar    1  UNL1        0.0526
     35 C          61.6694   87.7894   10.5554 C.ar    1  UNL1        0.0547
     36 C          60.8218   88.8153    9.8631 C.ar    1  UNL1        0.1736
     37 C          59.3458   89.6378    6.3884 C.3     1  UNL1        0.2526
     38 O          59.2883   89.5009    7.8811 O.3     1  UNL1       -0.4684
     39 O          60.6603   90.1816   10.4607 O.3     1  UNL1       -0.4683
     40 C          59.5474   90.4494   11.4301 C.3     1  UNL1        0.2526
@<TRIPOS>UNITY_ATOM_ATTR
27 1
charge -1
@<TRIPOS>BOND
     1    37    38    1
     2    38    31    1
     3    31    32   ar
     4    32    33   ar
     5    33    34   ar
     6    34    29    1
     7    29     1    1
     8     1     2   ar
     9     2     3   ar
    10     3    10    1
    11    10    11   ar
    12    11    12   ar
    13    12    13   ar
    14    13    14   ar
    15    14    16    1
    16    16    17    2
    17    16    18   am
    18    18    20    1
    19    20    21   ar
    20    21    22   ar
    21    22    23   ar
    22    23    26    1
    23    26    27   ar
    24    26    28   ar
    25    23    24   ar
    26    24    25   ar
    27    14    15   ar
    28     3     4   ar
    29     4     5   ar
    30     5     6   ar
    31     6     7   ar
    32     7     8   ar
    33     8     9   ar
    34    34    35   ar
    35    35    36   ar
    36    36    39    1
    37    39    40    1
    38    36    31   ar
    39     9     1   ar
    40    15    10   ar
    41     9     5   ar
    42    25    20   ar
    43    29    30    1
    44    18    19    1
@<TRIPOS>MOLECULE
*****
 40 44 0 0 0
SMALL
GASTEIGER

@<TRIPOS>ATOM
      1 C          63.0798   87.5216   12.6854 C.ar    1  UNL1        0.1536
      2 N          62.1332   87.2989   11.5434 N.ar    1  UNL1       -0.2102
      3 C          61.7110   88.4529   10.6832 C.ar    1  UNL1        0.1643
      4 N          62.2355   89.8297   10.9650 N.ar    1  UNL1       -0.2184
      5 C          63.1822   90.0524   12.1070 C.ar    1  UNL1        0.1341
      6 S          63.8595   91.2873   12.6230 S.2     1  UNL1       -0.0453
      7 C          64.7002   90.8965   13.8021 C.ar    1  UNL1        0.1360
      8 N          64.5426   89.4200   14.0149 N.ar    1  UNL1       -0.2319
      9 C          63.6043   88.8984   12.9672 C.ar    1  UNL1        0.1372
     10 C          60.7643   88.2301    9.5411 C.ar    1  UNL1        0.0360
     11 C          59.8886   87.0125    9.5194 C.ar    1  UNL1        0.0031
     12 C          58.9419   86.7897    8.3774 C.ar    1  UNL1        0.0002
     13 C          58.8710   87.7846    7.2571 C.ar    1  UNL1        0.0045
     14 C          59.7467   89.0023    7.2788 C.ar    1  UNL1        0.0538
     15 C          60.6934   89.2250    8.4208 C.ar    1  UNL1        0.0076
     16 C          59.6759   89.9973    6.1584 C.2     1  UNL1        0.2495
     17 O          58.3433   90.4767    5.6643 O.2     1  UNL1       -0.2698
     18 N          60.9377   90.5127    5.5323 N.am    1  UNL1       -0.2804
     19 H          61.8123   90.1980    5.8566 H       1  UNL1        0.1552
     20 C          60.8669   91.5076    4.4120 C.ar    1  UNL1        0.0505
     21 C          62.0202   91.6529    3.4640 C.ar    1  UNL1        0.0147
     22 C          61.9493   92.6479    2.3436 C.ar    1  UNL1        0.0024
     23 C          60.7253   93.4975    2.1714 C.ar    1  UNL1        0.0141
     24 C          59.5720   93.3522    3.1194 C.ar    1  UNL1        0.0024
     25 C          59.6428   92.3573    4.2397 C.ar    1  UNL1        0.0147
     26 C          60.6544   94.4925    1.0511 C.2     1  UNL1        0.0729
     27 O          61.6046   94.3894   -0.1049 O.co2   1  UNL1       -0.5446
     28 O          59.6332   95.5906    1.0868 O.co2   1  UNL1       -0.5446
     29 N          63.5019   86.3676   13.5456 N.pl3   1  UNL1       -0.2965
     30 H          63.9055   86.5332   14.4282 H       1  UNL1        0.1537
     31 C          62.9237   82.1482   12.0923 C.ar    1  UNL1        0.1725
     32 C          63.4519   83.1970   11.1592 C.ar    1  UNL1        0.0413
     33 C          63.6446   84.6036   11.6436 C.ar    1  UNL1        0.0180
     34 C          63.3092   84.9611   13.0612 C.ar    1  UNL1        0.0526
     35 C          62.7810   83.9122   13.9944 C.ar    1  UNL1        0.0547
     36 C          62.5883   82.5058   13.5100 C.ar    1  UNL1        0.1736
     37 C          63.1078   80.3740   10.2033 C.3     1  UNL1        0.2526
     38 O          62.7310   80.7417   11.6079 O.3     1  UNL1       -0.4684
     39 O          62.0601   81.4568   14.4431 O.3     1  UNL1       -0.4683
     40 C          60.7242   80.8260   14.1835 C.3     1  UNL1        0.2526
@<TRIPOS>UNITY_ATOM_ATTR
27 1
charge -1
@<TRIPOS>BOND
     1    37    38    1
     2    38    31    1
     3    31    32   ar
     4    32    33   ar
     5    33    34   ar
     6    34    29    1
     7    29     1    1
     8     1     2   ar
     9     2     3   ar
    10     3    10    1
    11    10    11   ar
    12    11    12   ar
    13    12    13   ar
    14    13    14   ar
    15    14    16    1
    16    16    17    2
    17    16    18   am
    18    18    20    1
    19    20    21   ar
    20    21    22   ar
    21    22    23   ar
    22    23    26    1
    23    26    27   ar
    24    26    28   ar
    25    23    24   ar
    26    24    25   ar
    27    14    15   ar
    28     3     4   ar
    29     4     5   ar
    30     5     6   ar
    31     6     7   ar
    32     7     8   ar
    33     8     9   ar
    34    34    35   ar
    35    35    36   ar
    36    36    39    1
    37    39    40    1
    38    36    31   ar
    39     9     1   ar
    40    15    10   ar
    41     9     5   ar
    42    25    20   ar
    43    29    30    1
    44    18    19    1
@<TRIPOS>MOLECULE
*****
 40 44 0 0 0
SMALL
GASTEIGER

@<TRIPOS>ATOM
      1 C          60.7833   89.1647    9.9560 C.ar    1  UNL1        0.1536
      2 N          60.1416   89.9689    8.8645 N.ar    1  UNL1       -0.2102
      3 C          59.8443   89.3321    7.5394 C.ar    1  UNL1        0.1643
      4 N          60.1887   87.8910    7.3057 N.ar    1  UNL1       -0.2184
      5 C          60.8304   87.0867    8.3972 C.ar    1  UNL1        0.1341
      6 S          61.2799   85.6570    8.4587 S.2     1  UNL1       -0.0453
      7 C          61.8551   85.4102    9.8219 C.ar    1  UNL1        0.1360
      8 N          61.7611   86.6874   10.6028 N.ar    1  UNL1       -0.2319
      9 C          61.1277   87.7236    9.7223 C.ar    1  UNL1        0.1372
     10 C          59.2025   90.1364    6.4479 C.ar    1  UNL1        0.0360
     11 C          57.7104   90.1367    6.2946 C.ar    1  UNL1        0.0031
     12 C          57.0686   90.9409    5.2032 C.ar    1  UNL1        0.0002
     13 C          57.9191   91.7449    4.2649 C.ar    1  UNL1        0.0045
     14 C          59.4112   91.7447    4.4182 C.ar    1  UNL1        0.0538
     15 C          60.0530   90.9405    5.5096 C.ar    1  UNL1        0.0076
     16 C          60.2618   92.5488    3.4799 C.2     1  UNL1        0.2495
     17 O          59.8608   93.9475    3.1160 O.2     1  UNL1       -0.2698
     18 N          61.5133   91.9539    2.9057 N.am    1  UNL1       -0.2804
     19 H          61.7764   91.0358    3.1445 H       1  UNL1        0.1552
     20 C          62.3638   92.7578    1.9674 C.ar    1  UNL1        0.0505
     21 C          61.9108   92.9896    0.5564 C.ar    1  UNL1        0.0147
     22 C          62.7615   93.7936   -0.3818 C.ar    1  UNL1        0.0024
     23 C          64.0648   94.3657    0.0910 C.ar    1  UNL1        0.0141
     24 C          64.5178   94.1340    1.5021 C.ar    1  UNL1        0.0024
     25 C          63.6672   93.3300    2.4403 C.ar    1  UNL1        0.0147
     26 C          64.9154   95.1697   -0.8472 C.2     1  UNL1        0.0729
     27 O          66.0530   95.9886   -0.3132 O.co2   1  UNL1       -0.5446
     28 O          64.6283   95.1548   -2.3193 O.co2   1  UNL1       -0.5446
     29 N          61.0807   89.8015   11.2812 N.pl3   1  UNL1       -0.2965
     30 H          60.4218   89.7501   12.0109 H       1  UNL1        0.1537
     31 C          64.9841   91.9471   11.9211 C.ar    1  UNL1        0.1725
     32 C          64.3445   91.9424   10.5644 C.ar    1  UNL1        0.0413
     33 C          63.0433   91.2272   10.3510 C.ar    1  UNL1        0.0180
     34 C          62.3818   90.5167   11.4945 C.ar    1  UNL1        0.0526
     35 C          63.0214   90.5214   12.8513 C.ar    1  UNL1        0.0547
     36 C          64.3225   91.2366   13.0646 C.ar    1  UNL1        0.1736
     37 C          66.3235   94.1618   12.1477 C.3     1  UNL1        0.2526
     38 O          66.2853   92.6623   12.1345 O.3     1  UNL1       -0.4684
     39 O          64.9621   91.2413   14.4214 O.3     1  UNL1       -0.4683
     40 C          64.1338   90.9692   15.6420 C.3     1  UNL1        0.2526
@<TRIPOS>UNITY_ATOM_ATTR
27 1
charge -1
@<TRIPOS>BOND
     1    37    38    1
     2    38    31    1
     3    31    32   ar
     4    32    33   ar
     5    33    34   ar
     6    34    29    1
     7    29     1    1
     8     1     2   ar
     9     2     3   ar
    10     3    10    1
    11    10    11   ar
    12    11    12   ar
    13    12    13   ar
    14    13    14   ar
    15    14    16    1
    16    16    17    2
    17    16    18   am
    18    18    20    1
    19    20    21   ar
    20    21    22   ar
    21    22    23   ar
    22    23    26    1
    23    26    27   ar
    24    26    28   ar
    25    23    24   ar
    26    24    25   ar
    27    14    15   ar
    28     3     4   ar
    29     4     5   ar
    30     5     6   ar
    31     6     7   ar
    32     7     8   ar
    33     8     9   ar
    34    34    35   ar
    35    35    36   ar
    36    36    39    1
    37    39    40    1
    38    36    31   ar
    39     9     1   ar
    40    15    10   ar
    41     9     5   ar
    42    25    20   ar
    43    29    30    1
    44    18    19    1
@<TRIPOS>MOLECULE
*****
 40 44 0 0 0
SMALL
GASTEIGER

@<TRIPOS>ATOM
      1 C          62.7274   89.5325   12.3603 C.ar    1  UNL1        0.1536
      2 N          61.8255   89.4346   11.1658 N.ar    1  UNL1       -0.2102
      3 C          61.4602   88.0902   10.6100 C.ar    1  UNL1        0.1643
      4 N          61.9968   86.8435   11.2487 N.ar    1  UNL1       -0.2184
      5 C          62.8988   86.9414   12.4433 C.ar    1  UNL1        0.1341
      6 S          63.5758   85.8952   13.2781 S.2     1  UNL1       -0.0453
      7 C          64.3595   86.5931   14.3499 C.ar    1  UNL1        0.1360
      8 N          64.1668   88.0706   14.1775 N.ar    1  UNL1       -0.2319
      9 C          63.2640   88.2859   12.9991 C.ar    1  UNL1        0.1372
     10 C          60.5582   87.9923    9.4154 C.ar    1  UNL1        0.0360
     11 C          59.6543   86.8063    9.2533 C.ar    1  UNL1        0.0031
     12 C          58.7524   86.7084    8.0588 C.ar    1  UNL1        0.0002
     13 C          58.7544   87.7965    7.0263 C.ar    1  UNL1        0.0045
     14 C          59.6583   88.9825    7.1884 C.ar    1  UNL1        0.0538
     15 C          60.5602   89.0804    8.3829 C.ar    1  UNL1        0.0076
     16 C          59.6604   90.0707    6.1559 C.2     1  UNL1        0.2495
     17 O          58.4058   90.8450    5.8798 O.2     1  UNL1       -0.2698
     18 N          60.9172   90.3846    5.3997 N.am    1  UNL1       -0.2804
     19 H          61.7406   89.8764    5.5809 H       1  UNL1        0.1552
     20 C          60.9193   91.4727    4.3672 C.ar    1  UNL1        0.0505
     21 C          59.7291   92.3746    4.2257 C.ar    1  UNL1        0.0147
     22 C          59.7313   93.4628    3.1932 C.ar    1  UNL1        0.0024
     23 C          60.9235   93.6490    2.3024 C.ar    1  UNL1        0.0141
     24 C          62.1137   92.7471    2.4439 C.ar    1  UNL1        0.0024
     25 C          62.1116   91.6590    3.4763 C.ar    1  UNL1        0.0147
     26 C          60.9257   94.7372    1.2699 C.2     1  UNL1        0.0729
     27 O          59.6480   95.4396    0.9178 O.co2   1  UNL1       -0.5446
     28 O          62.2057   95.1228    0.5895 O.co2   1  UNL1       -0.5446
     29 N          63.0927   90.8770   12.9161 N.pl3   1  UNL1       -0.2965
     30 H          62.5710   91.2616   13.6572 H       1  UNL1        0.1537
     31 C          66.5729   93.1528   11.1962 C.ar    1  UNL1        0.1725
     32 C          65.4357   92.7392   10.3099 C.ar    1  UNL1        0.0413
     33 C          64.2755   91.9806   10.8832 C.ar    1  UNL1        0.0180
     34 C          64.2528   91.6356   12.3428 C.ar    1  UNL1        0.0526
     35 C          65.3901   92.0491   13.2292 C.ar    1  UNL1        0.0547
     36 C          66.5501   92.8077   12.6558 C.ar    1  UNL1        0.1736
     37 C          68.0230   93.8400    9.1529 C.3     1  UNL1        0.2526
     38 O          67.7331   93.9114   10.6229 O.3     1  UNL1       -0.4684
     39 O          67.6875   93.2213   13.5421 O.3     1  UNL1       -0.4683
     40 C          67.4758   93.3540   15.0212 C.3     1  UNL1        0.2526
@<TRIPOS>UNITY_ATOM_ATTR
27 1
charge -1
@<TRIPOS>BOND
     1    37    38    1
     2    38    31    1
     3    31    32   ar
     4    32    33   ar
     5    33    34   ar
     6    34    29    1
     7    29     1    1
     8     1     2   ar
     9     2     3   ar
    10     3    10    1
    11    10    11   ar
    12    11    12   ar
    13    12    13   ar
    14    13    14   ar
    15    14    16    1
    16    16    17    2
    17    16    18   am
    18    18    20    1
    19    20    21   ar
    20    21    22   ar
    21    22    23   ar
    22    23    26    1
    23    26    27   ar
    24    26    28   ar
    25    23    24   ar
    26    24    25   ar
    27    14    15   ar
    28     3     4   ar
    29     4     5   ar
    30     5     6   ar
    31     6     7   ar
    32     7     8   ar
    33     8     9   ar
    34    34    35   ar
    35    35    36   ar
    36    36    39    1
    37    39    40    1
    38    36    31   ar
    39     9     1   ar
    40    15    10   ar
    41     9     5   ar
    42    25    20   ar
    43    29    30    1
    44    18    19    1
@<TRIPOS>MOLECULE
*****
 40 44 0 0 0
SMALL
GASTEIGER

@<TRIPOS>ATOM
      1 C          62.7429   89.7684   12.4433 C.ar    1  UNL1        0.1536
      2 N          61.8556   89.6172   11.2433 N.ar    1  UNL1       -0.2102
      3 C          61.5387   88.2507   10.7123 C.ar    1  UNL1        0.1643
      4 N          62.1091   87.0352   11.3812 N.ar    1  UNL1       -0.2184
      5 C          62.9964   87.1864   12.5811 C.ar    1  UNL1        0.1341
      6 S          63.6989   86.1797   13.4431 S.2     1  UNL1       -0.0453
      7 C          64.4499   86.9242   14.5070 C.ar    1  UNL1        0.1360
      8 N          64.2116   88.3909   14.3024 N.ar    1  UNL1       -0.2319
      9 C          63.3133   88.5530   13.1122 C.ar    1  UNL1        0.1372
     10 C          60.6514   88.0995    9.5123 C.ar    1  UNL1        0.0360
     11 C          59.7892   86.8809    9.3658 C.ar    1  UNL1        0.0031
     12 C          58.9020   86.7297    8.1659 C.ar    1  UNL1        0.0002
     13 C          58.8769   87.7972    7.1124 C.ar    1  UNL1        0.0045
     14 C          59.7390   89.0159    7.2589 C.ar    1  UNL1        0.0538
     15 C          60.6263   89.1671    8.4588 C.ar    1  UNL1        0.0076
     16 C          59.7140   90.0835    6.2054 C.2     1  UNL1        0.2495
     17 O          58.4410   90.8221    5.9163 O.2     1  UNL1       -0.2698
     18 N          60.9621   90.4122    5.4411 N.am    1  UNL1       -0.2804
     19 H          61.7976   89.9274    5.6309 H       1  UNL1        0.1552
     20 C          60.9371   91.4798    4.3877 C.ar    1  UNL1        0.0505
     21 C          62.1158   91.6639    3.4784 C.ar    1  UNL1        0.0147
     22 C          62.0907   92.7315    2.4250 C.ar    1  UNL1        0.0024
     23 C          60.8871   93.6148    2.2808 C.ar    1  UNL1        0.0141
     24 C          59.7084   93.4307    3.1900 C.ar    1  UNL1        0.0024
     25 C          59.7334   92.3631    4.2435 C.ar    1  UNL1        0.0147
     26 C          60.8621   94.6824    1.2273 C.2     1  UNL1        0.0729
     27 O          61.8679   94.6620    0.1148 O.co2   1  UNL1       -0.5446
     28 O          59.8311   95.7703    1.2865 O.co2   1  UNL1       -0.5446
     29 N          63.0598   91.1350   12.9743 N.pl3   1  UNL1       -0.2965
     30 H          62.3342   91.7802   13.1373 H       1  UNL1        0.1537
     31 C          67.3266   92.2857   13.8225 C.ar    1  UNL1        0.1725
     32 C          66.4572   91.7626   14.9271 C.ar    1  UNL1        0.0413
     33 C          65.0349   91.3790   14.6445 C.ar    1  UNL1        0.0180
     34 C          64.4821   91.5186   13.2571 C.ar    1  UNL1        0.0526
     35 C          65.3515   92.0418   12.1523 C.ar    1  UNL1        0.0547
     36 C          66.7738   92.4253   12.4350 C.ar    1  UNL1        0.1736
     37 C          69.1320   93.1823   15.4617 C.3     1  UNL1        0.2526
     38 O          68.7490   92.6693   14.1052 O.3     1  UNL1       -0.4684
     39 O          67.6433   92.9485   11.3303 O.3     1  UNL1       -0.4683
     40 C          67.5652   92.3392    9.9619 C.3     1  UNL1        0.2526
@<TRIPOS>UNITY_ATOM_ATTR
27 1
charge -1
@<TRIPOS>BOND
     1    37    38    1
     2    38    31    1
     3    31    32   ar
     4    32    33   ar
     5    33    34   ar
     6    34    29    1
     7    29     1    1
     8     1     2   ar
     9     2     3   ar
    10     3    10    1
    11    10    11   ar
    12    11    12   ar
    13    12    13   ar
    14    13    14   ar
    15    14    16    1
    16    16    17    2
    17    16    18   am
    18    18    20    1
    19    20    21   ar
    20    21    22   ar
    21    22    23   ar
    22    23    26    1
    23    26    27   ar
    24    26    28   ar
    25    23    24   ar
    26    24    25   ar
    27    14    15   ar
    28     3     4   ar
    29     4     5   ar
    30     5     6   ar
    31     6     7   ar
    32     7     8   ar
    33     8     9   ar
    34    34    35   ar
    35    35    36   ar
    36    36    39    1
    37    39    40    1
    38    36    31   ar
    39     9     1   ar
    40    15    10   ar
    41     9     5   ar
    42    25    20   ar
    43    29    30    1
    44    18    19    1
