@<TRIPOS>MOLECULE
*****
 33 35 0 0 0
SMALL
GASTEIGER

@<TRIPOS>ATOM
      1 C          62.0697   89.1906   11.2482 C.3     1  UNL1        0.1290
      2 N          63.1109   90.0516   11.8998 N.am    1  UNL1       -0.2187
      3 C          63.6641   89.8723   13.2825 C.2     1  UNL1        0.2554
      4 O          63.2731   88.8005   14.2564 O.2     1  UNL1       -0.2695
      5 C          64.6768   90.9529   13.5205 C.ar    1  UNL1        0.0596
      6 C          65.5421   91.2749   14.7026 C.ar    1  UNL1        0.0048
      7 C          66.4802   92.4441   14.6491 C.ar    1  UNL1        0.0014
      8 C          66.5530   93.2913   13.4134 C.ar    1  UNL1        0.0148
      9 C          65.6877   92.9693   12.2313 C.ar    1  UNL1        0.0548
     10 C          64.7496   91.8001   12.2848 C.ar    1  UNL1        0.0718
     11 C          63.7818   91.2431   11.2832 C.2     1  UNL1        0.2566
     12 O          63.5293   91.7828    9.9066 O.2     1  UNL1       -0.2694
     13 N          65.7605   93.8166   10.9956 N.am    1  UNL1       -0.2838
     14 C          66.9465   93.7119   10.0833 C.2     1  UNL1        0.2266
     15 C          67.0193   94.5592    8.8476 C.3     1  UNL1        0.0949
     16 O          68.0598   92.7600   10.4066 O.2     1  UNL1       -0.2748
     17 H          65.0298   94.4413   10.7833 H       1  UNL1        0.1549
     18 C          62.9074   85.3692   11.9150 C.ar    1  UNL1        0.1719
     19 C          62.6326   86.8234   12.1590 C.ar    1  UNL1        0.0374
     20 C          62.3445   87.7364   11.0042 C.ar    1  UNL1        0.0011
     21 C          62.3312   87.1950    9.6053 C.ar    1  UNL1        0.0007
     22 C          62.6060   85.7406    9.3614 C.ar    1  UNL1        0.0398
     23 C          62.8940   84.8278   10.5162 C.ar    1  UNL1        0.1724
     24 O          63.1688   83.3734   10.2722 O.3     1  UNL1       -0.4684
     25 C          64.5675   82.8444   10.3897 C.3     1  UNL1        0.2526
     26 O          63.1954   84.4562   13.0699 O.3     1  UNL1       -0.4724
     27 C          64.7074   85.5764   14.8611 C.3     1  UNL1        0.0512
     28 C          64.5091   84.5471   13.7882 C.3     1  UNL1        0.2057
     29 C          60.7538   89.7839   10.8405 C.3     1  UNL1        0.1755
     30 S          59.5621   89.6567   11.7426 S.O2    1  UNL1       -0.0062
     31 C          58.3704   89.5295   12.6447 C.3     1  UNL1        0.1761
     32 O          59.2028   91.0872   11.4697 O.2     1  UNL1       -0.1729
     33 O          59.9214   88.2262   12.0156 O.2     1  UNL1       -0.1729
@<TRIPOS>BOND
     1    27    28    1
     2    28    26    1
     3    26    18    1
     4    18    19   ar
     5    19    20   ar
     6    20     1    1
     7     1    29    1
     8    29    30    1
     9    30    31    1
    10    30    32    2
    11    30    33    2
    12     1     2    1
    13     2     3   am
    14     3     4    2
    15     3     5    1
    16     5     6   ar
    17     6     7   ar
    18     7     8   ar
    19     8     9   ar
    20     9    13    1
    21    13    14   am
    22    14    15    1
    23    14    16    2
    24     9    10   ar
    25    10    11    1
    26    11    12    2
    27    20    21   ar
    28    21    22   ar
    29    22    23   ar
    30    23    24    1
    31    24    25    1
    32    23    18   ar
    33    11     2   am
    34    10     5   ar
    35    13    17    1
@<TRIPOS>MOLECULE
*****
 33 35 0 0 0
SMALL
GASTEIGER

@<TRIPOS>ATOM
      1 C          63.4025   90.5228   13.0819 C.3     1  UNL1        0.1290
      2 N          62.6892   89.5594   12.1803 N.am    1  UNL1       -0.2187
      3 C          61.6334   89.9099   11.1741 C.2     1  UNL1        0.2554
      4 O          61.1056   91.2855   10.8928 O.2     1  UNL1       -0.2695
      5 C          61.1980   88.6434   10.4985 C.ar    1  UNL1        0.0596
      6 C          60.1869   88.3757    9.4234 C.ar    1  UNL1        0.0048
      7 C          59.9625   86.9747    8.9369 C.ar    1  UNL1        0.0014
      8 C          60.7493   85.8413    9.5256 C.ar    1  UNL1        0.0148
      9 C          61.7604   86.1090   10.6007 C.ar    1  UNL1        0.0548
     10 C          61.9848   87.5100   11.0872 C.ar    1  UNL1        0.0718
     11 C          62.9063   88.0761   12.1266 C.2     1  UNL1        0.2566
     12 O          63.8750   87.2959   12.9650 O.2     1  UNL1       -0.2694
     13 N          62.5471   84.9756   11.1894 N.am    1  UNL1       -0.2838
     14 C          63.4203   84.1318   10.3089 C.2     1  UNL1        0.2266
     15 C          64.2071   82.9984   10.8976 C.3     1  UNL1        0.0949
     16 O          63.5069   84.4213    8.8396 O.2     1  UNL1       -0.2748
     17 H          62.4903   84.7856   12.1537 H       1  UNL1        0.1549
     18 C          66.5691   92.9030   12.8418 C.ar    1  UNL1        0.1719
     19 C          65.5304   91.9783   13.4040 C.ar    1  UNL1        0.0374
     20 C          64.4411   91.4475   12.5197 C.ar    1  UNL1        0.0011
     21 C          64.3906   91.8416   11.0733 C.ar    1  UNL1        0.0007
     22 C          65.4293   92.7664   10.5111 C.ar    1  UNL1        0.0398
     23 C          66.5185   93.2970   11.3954 C.ar    1  UNL1        0.1724
     24 O          67.5572   94.2218   10.8332 O.3     1  UNL1       -0.4684
     25 C          67.6205   94.4687    9.3550 C.3     1  UNL1        0.2526
     26 O          67.6584   93.4337   13.7261 O.3     1  UNL1       -0.4724
     27 C          68.2370   92.3730   16.0260 C.3     1  UNL1        0.0512
     28 C          67.4984   93.3976   15.2171 C.3     1  UNL1        0.2057
     29 C          63.0772   90.5616   14.5456 C.3     1  UNL1        0.1755
     30 S          63.3187   89.3524   15.3999 S.O2    1  UNL1       -0.0062
     31 C          63.5603   88.1433   16.2541 C.3     1  UNL1        0.1761
     32 O          61.9167   89.4436   15.9253 O.2     1  UNL1       -0.1729
     33 O          64.7207   89.2613   14.8744 O.2     1  UNL1       -0.1729
@<TRIPOS>BOND
     1    27    28    1
     2    28    26    1
     3    26    18    1
     4    18    19   ar
     5    19    20   ar
     6    20     1    1
     7     1    29    1
     8    29    30    1
     9    30    31    1
    10    30    32    2
    11    30    33    2
    12     1     2    1
    13     2     3   am
    14     3     4    2
    15     3     5    1
    16     5     6   ar
    17     6     7   ar
    18     7     8   ar
    19     8     9   ar
    20     9    13    1
    21    13    14   am
    22    14    15    1
    23    14    16    2
    24     9    10   ar
    25    10    11    1
    26    11    12    2
    27    20    21   ar
    28    21    22   ar
    29    22    23   ar
    30    23    24    1
    31    24    25    1
    32    23    18   ar
    33    11     2   am
    34    10     5   ar
    35    13    17    1
@<TRIPOS>MOLECULE
*****
 33 35 0 0 0
SMALL
GASTEIGER

@<TRIPOS>ATOM
      1 C          61.8870   88.3076   11.0053 C.3     1  UNL1        0.1290
      2 N          62.4285   86.9088   11.0069 N.am    1  UNL1       -0.2187
      3 C          62.4578   85.9733    9.8347 C.2     1  UNL1        0.2554
      4 O          61.9507   86.2724    8.4551 O.2     1  UNL1       -0.2695
      5 C          63.0832   84.6862   10.2844 C.ar    1  UNL1        0.0596
      6 C          63.3735   83.4048    9.5607 C.ar    1  UNL1        0.0048
      7 C          64.0211   82.2634   10.2871 C.ar    1  UNL1        0.0014
      8 C          64.3783   82.4033   11.7372 C.ar    1  UNL1        0.0148
      9 C          64.0879   83.6847   12.4609 C.ar    1  UNL1        0.0548
     10 C          63.4404   84.8261   11.7345 C.ar    1  UNL1        0.0718
     11 C          63.0358   86.1997   12.1810 C.2     1  UNL1        0.2566
     12 O          63.2082   86.7651   13.5597 O.2     1  UNL1       -0.2694
     13 N          64.4452   83.8246   13.9110 N.am    1  UNL1       -0.2838
     14 C          63.3764   83.7304   14.9592 C.2     1  UNL1        0.2266
     15 C          63.7336   83.8704   16.4093 C.3     1  UNL1        0.0949
     16 O          61.9502   83.4963   14.5573 O.2     1  UNL1       -0.2748
     17 H          65.3811   83.9783   14.1748 H       1  UNL1        0.1549
     18 C          64.1550   90.6798   13.2365 C.ar    1  UNL1        0.1719
     19 C          63.2773   89.5354   12.8246 C.ar    1  UNL1        0.0374
     20 C          62.7647   89.4521   11.4173 C.ar    1  UNL1        0.0011
     21 C          63.1297   90.5133   10.4221 C.ar    1  UNL1        0.0007
     22 C          64.0075   91.6579   10.8341 C.ar    1  UNL1        0.0398
     23 C          64.5201   91.7411   12.2413 C.ar    1  UNL1        0.1724
     24 O          65.3979   92.8856   12.6533 O.3     1  UNL1       -0.4684
     25 C          66.0366   93.7542   11.6104 C.3     1  UNL1        0.2526
     26 O          64.6677   90.7631   14.6438 O.3     1  UNL1       -0.4724
     27 C          63.2467   89.5090   16.4207 C.3     1  UNL1        0.0512
     28 C          63.7038   90.7922   15.7927 C.3     1  UNL1        0.2057
     29 C          60.4678   88.5620   10.5917 C.3     1  UNL1        0.1755
     30 S          59.7121   89.7186   11.1759 S.O2    1  UNL1       -0.0062
     31 C          58.9565   90.8753   11.7600 C.3     1  UNL1        0.1761
     32 O          59.6046   88.9888   12.4819 O.2     1  UNL1       -0.1729
     33 O          59.8197   90.4485    9.8698 O.2     1  UNL1       -0.1729
@<TRIPOS>BOND
     1    27    28    1
     2    28    26    1
     3    26    18    1
     4    18    19   ar
     5    19    20   ar
     6    20     1    1
     7     1    29    1
     8    29    30    1
     9    30    31    1
    10    30    32    2
    11    30    33    2
    12     1     2    1
    13     2     3   am
    14     3     4    2
    15     3     5    1
    16     5     6   ar
    17     6     7   ar
    18     7     8   ar
    19     8     9   ar
    20     9    13    1
    21    13    14   am
    22    14    15    1
    23    14    16    2
    24     9    10   ar
    25    10    11    1
    26    11    12    2
    27    20    21   ar
    28    21    22   ar
    29    22    23   ar
    30    23    24    1
    31    24    25    1
    32    23    18   ar
    33    11     2   am
    34    10     5   ar
    35    13    17    1
@<TRIPOS>MOLECULE
*****
 33 35 0 0 0
SMALL
GASTEIGER

@<TRIPOS>ATOM
      1 C          62.3753   89.8443   11.8181 C.3     1  UNL1        0.1290
      2 N          63.4621   90.6062   12.5170 N.am    1  UNL1       -0.2187
      3 C          63.7218   90.6165   13.9943 C.2     1  UNL1        0.2554
      4 O          62.9403   89.8667   15.0321 O.2     1  UNL1       -0.2695
      5 C          64.9002   91.5083   14.2516 C.ar    1  UNL1        0.0596
      6 C          65.6070   91.8977   15.5160 C.ar    1  UNL1        0.0048
      7 C          66.7824   92.8280   15.4621 C.ar    1  UNL1        0.0014
      8 C          67.2510   93.3688   14.1438 C.ar    1  UNL1        0.0148
      9 C          66.5442   92.9794   12.8794 C.ar    1  UNL1        0.0548
     10 C          65.3687   92.0491   12.9333 C.ar    1  UNL1        0.0718
     11 C          64.4800   91.4916   11.8613 C.2     1  UNL1        0.2566
     12 O          64.5898   91.7705   10.3915 O.2     1  UNL1       -0.2694
     13 N          67.0128   93.5202   11.5611 N.am    1  UNL1       -0.2838
     14 C          66.6855   94.9309   11.1701 C.2     1  UNL1        0.2266
     15 C          67.1541   95.4717    9.8518 C.3     1  UNL1        0.0949
     16 O          65.8896   95.8008   12.0974 O.2     1  UNL1       -0.2748
     17 H          67.5351   92.9493   10.9524 H       1  UNL1        0.1549
     18 C          62.1227   86.2533   10.1475 C.ar    1  UNL1        0.1719
     19 C          61.9872   87.7326   10.3551 C.ar    1  UNL1        0.0374
     20 C          62.5108   88.3649   11.6106 C.ar    1  UNL1        0.0011
     21 C          63.1698   87.5178   12.6584 C.ar    1  UNL1        0.0007
     22 C          63.3053   86.0384   12.4508 C.ar    1  UNL1        0.0398
     23 C          62.7817   85.4062   11.1954 C.ar    1  UNL1        0.1724
     24 O          62.9172   83.9267   10.9878 O.3     1  UNL1       -0.4684
     25 C          62.7187   82.9865   12.1395 C.3     1  UNL1        0.2526
     26 O          61.5991   85.6210    8.8920 O.3     1  UNL1       -0.4724
     27 C          59.3526   86.6259    8.0597 C.3     1  UNL1        0.0512
     28 C          60.8331   86.4453    7.9002 C.3     1  UNL1        0.2057
     29 C          61.1531   90.5617   11.3268 C.3     1  UNL1        0.1755
     30 S          59.7892   90.0691   11.7105 S.O2    1  UNL1       -0.0062
     31 C          58.4254   89.5765   12.0943 C.3     1  UNL1        0.1761
     32 O          59.2523   90.5236   10.3857 O.2     1  UNL1       -0.1729
     33 O          60.3262   89.6146   13.0354 O.2     1  UNL1       -0.1729
@<TRIPOS>BOND
     1    27    28    1
     2    28    26    1
     3    26    18    1
     4    18    19   ar
     5    19    20   ar
     6    20     1    1
     7     1    29    1
     8    29    30    1
     9    30    31    1
    10    30    32    2
    11    30    33    2
    12     1     2    1
    13     2     3   am
    14     3     4    2
    15     3     5    1
    16     5     6   ar
    17     6     7   ar
    18     7     8   ar
    19     8     9   ar
    20     9    13    1
    21    13    14   am
    22    14    15    1
    23    14    16    2
    24     9    10   ar
    25    10    11    1
    26    11    12    2
    27    20    21   ar
    28    21    22   ar
    29    22    23   ar
    30    23    24    1
    31    24    25    1
    32    23    18   ar
    33    11     2   am
    34    10     5   ar
    35    13    17    1
@<TRIPOS>MOLECULE
*****
 33 35 0 0 0
SMALL
GASTEIGER

@<TRIPOS>ATOM
      1 C          62.2716   89.9648   11.5554 C.3     1  UNL1        0.1290
      2 N          62.5344   88.4899   11.6298 N.am    1  UNL1       -0.2187
      3 C          62.2689   87.4910   10.5427 C.2     1  UNL1        0.2554
      4 O          61.6939   87.7917    9.1903 O.2     1  UNL1       -0.2695
      5 C          62.6792   86.1387   11.0454 C.ar    1  UNL1        0.0596
      6 C          62.6472   84.7799   10.4109 C.ar    1  UNL1        0.0048
      7 C          63.1344   83.5841   11.1743 C.ar    1  UNL1        0.0014
      8 C          63.6535   83.7471   12.5721 C.ar    1  UNL1        0.0148
      9 C          63.6855   85.1059   13.2066 C.ar    1  UNL1        0.0548
     10 C          63.1984   86.3017   12.4432 C.ar    1  UNL1        0.0718
     11 C          63.1088   87.7548   12.8044 C.2     1  UNL1        0.2566
     12 O          63.5214   88.3656   14.1108 O.2     1  UNL1       -0.2694
     13 N          64.2047   85.2689   14.6044 N.am    1  UNL1       -0.2838
     14 C          63.2551   85.2410   15.7652 C.2     1  UNL1        0.2266
     15 C          63.7742   85.4040   17.1630 C.3     1  UNL1        0.0949
     16 O          61.7862   85.0500   15.5282 O.2     1  UNL1       -0.2748
     17 H          65.1687   85.3943   14.7600 H       1  UNL1        0.1549
     18 C          65.2041   92.2493   12.9451 C.ar    1  UNL1        0.1719
     19 C          64.0596   91.2806   12.9052 C.ar    1  UNL1        0.0374
     20 C          63.4161   90.9335   11.5953 C.ar    1  UNL1        0.0011
     21 C          63.9172   91.5552   10.3255 C.ar    1  UNL1        0.0007
     22 C          65.0618   92.5239   10.3655 C.ar    1  UNL1        0.0398
     23 C          65.7052   92.8710   11.6753 C.ar    1  UNL1        0.1724
     24 O          66.8498   93.8397   11.7153 O.3     1  UNL1       -0.4684
     25 C          66.8171   95.0748   10.8647 C.3     1  UNL1        0.2526
     26 O          65.8476   92.5964   14.2549 O.3     1  UNL1       -0.4724
     27 C          68.0509   92.5266   15.6298 C.3     1  UNL1        0.0512
     28 C          67.0746   91.8609   14.7059 C.3     1  UNL1        0.2057
     29 C          60.8643   90.4710   11.4411 C.3     1  UNL1        0.1755
     30 S          59.7205   89.6181   11.9039 S.O2    1  UNL1       -0.0062
     31 C          58.5767   88.7652   12.3668 C.3     1  UNL1        0.1761
     32 O          59.2491   89.4810   10.4865 O.2     1  UNL1       -0.1729
     33 O          60.1918   89.7553   13.3213 O.2     1  UNL1       -0.1729
@<TRIPOS>BOND
     1    27    28    1
     2    28    26    1
     3    26    18    1
     4    18    19   ar
     5    19    20   ar
     6    20     1    1
     7     1    29    1
     8    29    30    1
     9    30    31    1
    10    30    32    2
    11    30    33    2
    12     1     2    1
    13     2     3   am
    14     3     4    2
    15     3     5    1
    16     5     6   ar
    17     6     7   ar
    18     7     8   ar
    19     8     9   ar
    20     9    13    1
    21    13    14   am
    22    14    15    1
    23    14    16    2
    24     9    10   ar
    25    10    11    1
    26    11    12    2
    27    20    21   ar
    28    21    22   ar
    29    22    23   ar
    30    23    24    1
    31    24    25    1
    32    23    18   ar
    33    11     2   am
    34    10     5   ar
    35    13    17    1
@<TRIPOS>MOLECULE
*****
 33 35 0 0 0
SMALL
GASTEIGER

@<TRIPOS>ATOM
      1 C          63.6386   83.7300   12.6736 C.3     1  UNL1        0.1290
      2 N          63.1477   84.1925   11.3338 N.am    1  UNL1       -0.2187
      3 C          63.6077   83.6801   10.0012 C.2     1  UNL1        0.2554
      4 O          64.6394   82.6151    9.7744 O.2     1  UNL1       -0.2695
      5 C          62.8549   84.4195    8.9351 C.ar    1  UNL1        0.0596
      6 C          62.8924   84.3353    7.4380 C.ar    1  UNL1        0.0048
      7 C          62.0046   85.2206    6.6146 C.ar    1  UNL1        0.0014
      8 C          61.0793   86.1901    7.2883 C.ar    1  UNL1        0.0148
      9 C          61.0418   86.2743    8.7854 C.ar    1  UNL1        0.0548
     10 C          61.9296   85.3890    9.6088 C.ar    1  UNL1        0.0718
     11 C          62.1106   85.2487   11.0913 C.2     1  UNL1        0.2566
     12 O          61.3823   86.0279   12.1460 O.2     1  UNL1       -0.2694
     13 N          60.1165   87.2438    9.4592 N.am    1  UNL1       -0.2838
     14 C          60.6510   88.5340   10.0066 C.2     1  UNL1        0.2266
     15 C          59.7257   89.5035   10.6803 C.3     1  UNL1        0.0949
     16 O          62.1110   88.8547    9.8803 O.2     1  UNL1       -0.2748
     17 H          59.1583   87.0333    9.5421 H       1  UNL1        0.1549
     18 C          64.1165   86.9097   14.9998 C.ar    1  UNL1        0.1719
     19 C          64.2017   85.9958   13.8134 C.ar    1  UNL1        0.0374
     20 C          63.5534   84.6439   13.8599 C.ar    1  UNL1        0.0011
     21 C          62.8200   84.2059   15.0929 C.ar    1  UNL1        0.0007
     22 C          62.7348   85.1199   16.2793 C.ar    1  UNL1        0.0398
     23 C          63.3830   86.4717   16.2327 C.ar    1  UNL1        0.1724
     24 O          63.2978   87.3857   17.4192 O.3     1  UNL1       -0.4684
     25 C          62.6253   86.9212   18.6769 C.3     1  UNL1        0.2526
     26 O          64.7647   88.2616   14.9532 O.3     1  UNL1       -0.4724
     27 C          63.5929   89.5375   13.0171 C.3     1  UNL1        0.0512
     28 C          63.9904   89.4481   14.4607 C.3     1  UNL1        0.2057
     29 C          64.2148   82.3536   12.8270 C.3     1  UNL1        0.1755
     30 S          63.3191   81.1992   13.1661 S.O2    1  UNL1       -0.0062
     31 C          62.4235   80.0447   13.5052 C.3     1  UNL1        0.1761
     32 O          63.8806   81.1721   14.5568 O.2     1  UNL1       -0.1729
     33 O          62.7577   81.2263   11.7754 O.2     1  UNL1       -0.1729
@<TRIPOS>BOND
     1    27    28    1
     2    28    26    1
     3    26    18    1
     4    18    19   ar
     5    19    20   ar
     6    20     1    1
     7     1    29    1
     8    29    30    1
     9    30    31    1
    10    30    32    2
    11    30    33    2
    12     1     2    1
    13     2     3   am
    14     3     4    2
    15     3     5    1
    16     5     6   ar
    17     6     7   ar
    18     7     8   ar
    19     8     9   ar
    20     9    13    1
    21    13    14   am
    22    14    15    1
    23    14    16    2
    24     9    10   ar
    25    10    11    1
    26    11    12    2
    27    20    21   ar
    28    21    22   ar
    29    22    23   ar
    30    23    24    1
    31    24    25    1
    32    23    18   ar
    33    11     2   am
    34    10     5   ar
    35    13    17    1
@<TRIPOS>MOLECULE
*****
 33 35 0 0 0
SMALL
GASTEIGER

@<TRIPOS>ATOM
      1 C          61.9340   88.3521   11.1170 C.3     1  UNL1        0.1290
      2 N          62.4581   86.9470   11.0823 N.am    1  UNL1       -0.2187
      3 C          62.4603   86.0360    9.8906 C.2     1  UNL1        0.2554
      4 O          61.9388   86.3700    8.5244 O.2     1  UNL1       -0.2695
      5 C          63.0756   84.7323   10.3050 C.ar    1  UNL1        0.0596
      6 C          63.3404   83.4629    9.5510 C.ar    1  UNL1        0.0048
      7 C          63.9834   82.2987   10.2449 C.ar    1  UNL1        0.0014
      8 C          64.3614   82.4040   11.6926 C.ar    1  UNL1        0.0148
      9 C          64.0966   83.6734   12.4465 C.ar    1  UNL1        0.0548
     10 C          63.4537   84.8375   11.7527 C.ar    1  UNL1        0.0718
     11 C          63.0720   86.2063   12.2331 C.2     1  UNL1        0.2566
     12 O          63.2696   86.7406   13.6207 O.2     1  UNL1       -0.2694
     13 N          64.4747   83.7787   13.8943 N.am    1  UNL1       -0.2838
     14 C          63.4174   83.6858   14.9542 C.2     1  UNL1        0.2266
     15 C          63.7954   83.7911   16.4020 C.3     1  UNL1        0.0949
     16 O          61.9819   83.4877   14.5664 O.2     1  UNL1       -0.2748
     17 H          65.4168   83.9087   14.1488 H       1  UNL1        0.1549
     18 C          64.2455   91.5702   11.3408 C.ar    1  UNL1        0.1719
     19 C          63.4009   90.4685   10.7726 C.ar    1  UNL1        0.0374
     20 C          62.7785   89.4538   11.6852 C.ar    1  UNL1        0.0011
     21 C          63.0007   89.5407   13.1661 C.ar    1  UNL1        0.0007
     22 C          63.8453   90.6425   13.7344 C.ar    1  UNL1        0.0398
     23 C          64.4677   91.6572   12.8217 C.ar    1  UNL1        0.1724
     24 O          65.3122   92.7590   13.3900 O.3     1  UNL1       -0.4684
     25 C          66.6544   92.4459   13.9821 C.3     1  UNL1        0.2526
     26 O          64.8679   92.5850   10.4282 O.3     1  UNL1       -0.4724
     27 C          67.0067   93.8688    9.7021 C.3     1  UNL1        0.0512
     28 C          66.3593   92.6451   10.2793 C.3     1  UNL1        0.2057
     29 C          60.5653   88.6554   10.5834 C.3     1  UNL1        0.1755
     30 S          59.7597   89.7730   11.1768 S.O2    1  UNL1       -0.0062
     31 C          58.9541   90.8905   11.7701 C.3     1  UNL1        0.1761
     32 O          59.9994   90.5984    9.9474 O.2     1  UNL1       -0.1729
     33 O          59.5201   88.9475   12.4061 O.2     1  UNL1       -0.1729
@<TRIPOS>BOND
     1    27    28    1
     2    28    26    1
     3    26    18    1
     4    18    19   ar
     5    19    20   ar
     6    20     1    1
     7     1    29    1
     8    29    30    1
     9    30    31    1
    10    30    32    2
    11    30    33    2
    12     1     2    1
    13     2     3   am
    14     3     4    2
    15     3     5    1
    16     5     6   ar
    17     6     7   ar
    18     7     8   ar
    19     8     9   ar
    20     9    13    1
    21    13    14   am
    22    14    15    1
    23    14    16    2
    24     9    10   ar
    25    10    11    1
    26    11    12    2
    27    20    21   ar
    28    21    22   ar
    29    22    23   ar
    30    23    24    1
    31    24    25    1
    32    23    18   ar
    33    11     2   am
    34    10     5   ar
    35    13    17    1
@<TRIPOS>MOLECULE
*****
 33 35 0 0 0
SMALL
GASTEIGER

@<TRIPOS>ATOM
      1 C          63.0023   90.3447   12.2878 C.3     1  UNL1        0.1290
      2 N          63.3110   89.0083   12.8951 N.am    1  UNL1       -0.2187
      3 C          63.8263   88.7684   14.2832 C.2     1  UNL1        0.2554
      4 O          64.1234   89.8229   15.3078 O.2     1  UNL1       -0.2695
      5 C          63.9923   87.2890   14.4669 C.ar    1  UNL1        0.0596
      6 C          64.4660   86.4690   15.6301 C.ar    1  UNL1        0.0048
      7 C          64.5270   84.9744   15.5187 C.ar    1  UNL1        0.0014
      8 C          64.1143   84.2999   14.2440 C.ar    1  UNL1        0.0148
      9 C          63.6406   85.1199   13.0808 C.ar    1  UNL1        0.0548
     10 C          63.5797   86.6145   13.1922 C.ar    1  UNL1        0.0718
     11 C          63.1585   87.6770   12.2208 C.2     1  UNL1        0.2566
     12 O          62.6707   87.4485   10.8209 O.2     1  UNL1       -0.2694
     13 N          63.2280   84.4454   11.8062 N.am    1  UNL1       -0.2838
     14 C          63.9926   83.2561   11.3054 C.2     1  UNL1        0.2266
     15 C          63.5799   82.5816   10.0307 C.3     1  UNL1        0.0949
     16 O          65.1700   82.7413   12.0792 O.2     1  UNL1       -0.2748
     17 H          62.4552   84.7832   11.2983 H       1  UNL1        0.1549
     18 C          66.3219   92.5056   12.5334 C.ar    1  UNL1        0.1719
     19 C          65.2059   91.5749   12.9050 C.ar    1  UNL1        0.0374
     20 C          64.1183   91.2754   11.9162 C.ar    1  UNL1        0.0011
     21 C          64.1468   91.9068   10.5558 C.ar    1  UNL1        0.0007
     22 C          65.2629   92.8376   10.1842 C.ar    1  UNL1        0.0398
     23 C          66.3504   93.1370   11.1730 C.ar    1  UNL1        0.1724
     24 O          67.4665   94.0678   10.8014 O.3     1  UNL1       -0.4684
     25 C          67.4791   94.7227    9.4520 C.3     1  UNL1        0.2526
     26 O          67.4095   92.8050   13.5221 O.3     1  UNL1       -0.4724
     27 C          67.2869   92.7295   16.1161 C.3     1  UNL1        0.0512
     28 C          67.4911   92.0312   14.8044 C.3     1  UNL1        0.2057
     29 C          61.5775   90.7503   12.0521 C.3     1  UNL1        0.1755
     30 S          60.6205   89.7896   11.4109 S.O2    1  UNL1       -0.0062
     31 C          59.6634   88.8290   10.7697 C.3     1  UNL1        0.1761
     32 O          61.1956   90.1154   10.0644 O.2     1  UNL1       -0.1729
     33 O          60.0453   89.4639   12.7574 O.2     1  UNL1       -0.1729
@<TRIPOS>BOND
     1    27    28    1
     2    28    26    1
     3    26    18    1
     4    18    19   ar
     5    19    20   ar
     6    20     1    1
     7     1    29    1
     8    29    30    1
     9    30    31    1
    10    30    32    2
    11    30    33    2
    12     1     2    1
    13     2     3   am
    14     3     4    2
    15     3     5    1
    16     5     6   ar
    17     6     7   ar
    18     7     8   ar
    19     8     9   ar
    20     9    13    1
    21    13    14   am
    22    14    15    1
    23    14    16    2
    24     9    10   ar
    25    10    11    1
    26    11    12    2
    27    20    21   ar
    28    21    22   ar
    29    22    23   ar
    30    23    24    1
    31    24    25    1
    32    23    18   ar
    33    11     2   am
    34    10     5   ar
    35    13    17    1
@<TRIPOS>MOLECULE
*****
 33 35 0 0 0
SMALL
GASTEIGER

@<TRIPOS>ATOM
      1 C          62.7394   90.0889   11.9756 C.3     1  UNL1        0.1290
      2 N          62.8147   88.5909   11.9934 N.am    1  UNL1       -0.2187
      3 C          63.4338   87.7519   13.0717 C.2     1  UNL1        0.2554
      4 O          64.0863   88.2637   14.3217 O.2     1  UNL1       -0.2695
      5 C          63.2858   86.3114   12.6807 C.ar    1  UNL1        0.0596
      6 C          63.7063   85.0398   13.3561 C.ar    1  UNL1        0.0048
      7 C          63.4162   83.7168   12.7114 C.ar    1  UNL1        0.0014
      8 C          62.7057   83.6655   11.3914 C.ar    1  UNL1        0.0148
      9 C          62.2852   84.9371   10.7160 C.ar    1  UNL1        0.0548
     10 C          62.5753   86.2600   11.3607 C.ar    1  UNL1        0.0718
     11 C          62.2841   87.6689   10.9359 C.2     1  UNL1        0.2566
     12 O          61.5851   88.0829    9.6750 O.2     1  UNL1       -0.2694
     13 N          61.5746   84.8857    9.3960 N.am    1  UNL1       -0.2838
     14 C          62.3161   85.2063    8.1322 C.2     1  UNL1        0.2266
     15 C          61.6056   85.1550    6.8121 C.3     1  UNL1        0.0949
     16 O          63.7683   85.5783    8.1883 O.2     1  UNL1       -0.2748
     17 H          60.6216   84.6416    9.3592 H       1  UNL1        0.1549
     18 C          65.8613   92.5381   11.9019 C.ar    1  UNL1        0.1719
     19 C          64.6884   91.7227   11.4443 C.ar    1  UNL1        0.0374
     20 C          63.9123   90.9043   12.4332 C.ar    1  UNL1        0.0011
     21 C          64.3092   90.9013   13.8798 C.ar    1  UNL1        0.0007
     22 C          65.4822   91.7167   14.3373 C.ar    1  UNL1        0.0398
     23 C          66.2582   92.5351   13.3484 C.ar    1  UNL1        0.1724
     24 O          67.4312   93.3505   13.8060 O.3     1  UNL1       -0.4684
     25 C          67.7473   93.4547   15.2686 C.3     1  UNL1        0.2526
     26 O          66.6374   93.3565   10.9129 O.3     1  UNL1       -0.4724
     27 C          67.0151   95.6238    9.7019 C.3     1  UNL1        0.0512
     28 C          66.4262   94.8396   10.8369 C.3     1  UNL1        0.2057
     29 C          61.4913   90.7716   11.5003 C.3     1  UNL1        0.1755
     30 S          60.1493   90.1666   11.7886 S.O2    1  UNL1       -0.0062
     31 C          58.8073   89.5616   12.0769 C.3     1  UNL1        0.1761
     32 O          59.6678   90.5880   10.4319 O.2     1  UNL1       -0.1729
     33 O          60.6307   89.7451   13.1453 O.2     1  UNL1       -0.1729
@<TRIPOS>BOND
     1    27    28    1
     2    28    26    1
     3    26    18    1
     4    18    19   ar
     5    19    20   ar
     6    20     1    1
     7     1    29    1
     8    29    30    1
     9    30    31    1
    10    30    32    2
    11    30    33    2
    12     1     2    1
    13     2     3   am
    14     3     4    2
    15     3     5    1
    16     5     6   ar
    17     6     7   ar
    18     7     8   ar
    19     8     9   ar
    20     9    13    1
    21    13    14   am
    22    14    15    1
    23    14    16    2
    24     9    10   ar
    25    10    11    1
    26    11    12    2
    27    20    21   ar
    28    21    22   ar
    29    22    23   ar
    30    23    24    1
    31    24    25    1
    32    23    18   ar
    33    11     2   am
    34    10     5   ar
    35    13    17    1
