@<TRIPOS>MOLECULE
*****
 25 28 0 0 0
SMALL
GASTEIGER

@<TRIPOS>ATOM
      1 C          66.0882   92.2273   14.3818 C.2     1  UNL1        0.1475
      2 C          66.5223   93.3441   13.4797 C.2     1  UNL1        0.0367
      3 C          65.9520   93.4561   12.0968 C.2     1  UNL1        0.0217
      4 C          64.9476   92.4510   11.6162 C.2     1  UNL1        0.0804
      5 N          64.2171   92.3057   10.3142 N.2     1  UNL1       -0.2439
      6 C          63.3315   91.0990   10.4117 C.2     1  UNL1        0.1050
      7 C          63.5147   90.4985   11.7740 C.2     1  UNL1        0.0949
      8 C          64.5135   91.3341   12.5184 C.2     1  UNL1        0.0372
      9 C          65.0838   91.2222   13.9012 C.3     1  UNL1        0.1952
     10 C          68.0854   92.5003   16.0209 C.3     1  UNL1        0.2521
     11 O          66.6585   92.1153   15.7647 O.2     1  UNL1       -0.4729
     12 C          62.8208   89.2769   12.2996 C.2     1  UNL1        0.3426
     13 O          63.6201   88.1671   12.9156 O.2     1  UNL1       -0.2448
     14 O          61.3277   89.1650   12.2091 O.3     1  UNL1       -0.4454
     15 C          60.7038   88.2673   11.1821 C.3     1  UNL1        0.2087
     16 C          61.4692   87.0929   10.6483 C.3     1  UNL1        0.0445
     17 C          61.6834   85.8833   11.5093 C.3     1  UNL1        0.0210
     18 C          62.4487   84.7088   10.9755 C.3     1  UNL1        0.0722
     19 N          62.9998   84.7439    9.5808 N.3     1  UNL1       -0.2727
     20 C          62.7856   85.9534    8.7199 C.3     1  UNL1        0.0722
     21 C          62.0203   87.1279    9.2536 C.3     1  UNL1        0.0210
     22 C          62.5870   85.4116    9.8294 C.3     1  UNL1        0.0722
     23 C          61.8950   86.4735   10.3121 C.3     1  UNL1        0.0210
     24 O          64.6497   90.1053   14.8035 O.3     1  UNL1       -0.3415
     25 C          63.5943   90.3468   15.8417 C.3     1  UNL1        0.1751
@<TRIPOS>BOND
     1    10    11    1
     2    11     1    1
     3     1     2    2
     4     2     3    1
     5     3     4    2
     6     4     5    1
     7     5     6    2
     8     6     7    1
     9     7    12    1
    10    12    13    2
    11    12    14    1
    12    14    15    1
    13    15    16    1
    14    16    17    1
    15    17    18    1
    16    18    19    1
    17    19    20    1
    18    20    21    1
    19    19    22    1
    20    22    23    1
    21     7     8    2
    22     8     9    1
    23     9    24    1
    24    24    25    1
    25     9     1    1
    26     8     4    1
    27    21    16    1
    28    23    16    1
@<TRIPOS>MOLECULE
*****
 25 28 0 0 0
SMALL
GASTEIGER

@<TRIPOS>ATOM
      1 C          63.7727   83.1250   12.3329 C.2     1  UNL1        0.1475
      2 C          64.1647   82.3728   11.0958 C.2     1  UNL1        0.0367
      3 C          63.9310   82.9790    9.7437 C.2     1  UNL1        0.0217
      4 C          63.3052   84.3374    9.6289 C.2     1  UNL1        0.0804
      5 N          62.9545   85.1837    8.4411 N.2     1  UNL1       -0.2439
      6 C          62.3457   86.4589    8.9442 C.2     1  UNL1        0.1050
      7 C          62.3202   86.4008   10.4429 C.2     1  UNL1        0.0949
      8 C          62.9132   85.0896   10.8661 C.2     1  UNL1        0.0372
      9 C          63.1470   84.4834   12.2180 C.3     1  UNL1        0.1952
     10 C          63.1643   81.3662   14.1458 C.3     1  UNL1        0.2521
     11 O          64.0064   82.5188   13.6850 O.2     1  UNL1       -0.4729
     12 C          61.7940   87.4667   11.3578 C.2     1  UNL1        0.3426
     13 O          60.3145   87.6520   11.5205 O.2     1  UNL1       -0.2448
     14 O          62.7474   88.3473   12.1098 O.3     1  UNL1       -0.4454
     15 C          62.4635   89.8135   12.2487 C.3     1  UNL1        0.2087
     16 C          63.5827   90.8071   12.1476 C.3     1  UNL1        0.0445
     17 C          64.4150   91.1246   13.3545 C.3     1  UNL1        0.0210
     18 C          65.5342   92.1182   13.2535 C.3     1  UNL1        0.0722
     19 N          65.8212   92.7943   11.9455 N.3     1  UNL1       -0.2727
     20 C          64.9889   92.4768   10.7387 C.3     1  UNL1        0.0722
     21 C          63.8697   91.4832   10.8397 C.3     1  UNL1        0.0210
     22 C          65.1973   92.2568   11.9520 C.3     1  UNL1        0.0722
     23 C          64.1853   91.3584   12.0435 C.3     1  UNL1        0.0210
     24 O          62.7550   85.2356   13.4552 O.3     1  UNL1       -0.3415
     25 C          63.8123   85.8191   14.3448 C.3     1  UNL1        0.1751
@<TRIPOS>BOND
     1    10    11    1
     2    11     1    1
     3     1     2    2
     4     2     3    1
     5     3     4    2
     6     4     5    1
     7     5     6    2
     8     6     7    1
     9     7    12    1
    10    12    13    2
    11    12    14    1
    12    14    15    1
    13    15    16    1
    14    16    17    1
    15    17    18    1
    16    18    19    1
    17    19    20    1
    18    20    21    1
    19    19    22    1
    20    22    23    1
    21     7     8    2
    22     8     9    1
    23     9    24    1
    24    24    25    1
    25     9     1    1
    26     8     4    1
    27    21    16    1
    28    23    16    1
@<TRIPOS>MOLECULE
*****
 25 28 0 0 0
SMALL
GASTEIGER

@<TRIPOS>ATOM
      1 C          64.9895   91.3326   13.7560 C.2     1  UNL1        0.1475
      2 C          65.4887   92.3961   12.8236 C.2     1  UNL1        0.0367
      3 C          64.9375   92.4925   11.4318 C.2     1  UNL1        0.0217
      4 C          63.8870   91.5253   10.9726 C.2     1  UNL1        0.0804
      5 N          63.1618   91.3758    9.6681 N.2     1  UNL1       -0.2439
      6 C          62.2143   90.2197    9.7944 C.2     1  UNL1        0.1050
      7 C          62.3540   89.6548   11.1770 C.2     1  UNL1        0.0949
      8 C          63.3878   90.4617   11.9051 C.2     1  UNL1        0.0372
      9 C          63.9390   90.3653   13.2968 C.3     1  UNL1        0.1952
     10 C          66.0770   92.4606   15.8284 C.3     1  UNL1        0.2521
     11 O          65.5408   91.2362   15.1478 O.2     1  UNL1       -0.4729
     12 C          61.5934   88.4879   11.7335 C.2     1  UNL1        0.3426
     13 O          60.1279   88.6183   12.0254 O.2     1  UNL1       -0.2448
     14 O          62.2983   87.1906   11.9982 O.3     1  UNL1       -0.4454
     15 C          61.8326   85.9333   11.3258 C.3     1  UNL1        0.2087
     16 C          62.7179   84.7225   11.3035 C.3     1  UNL1        0.0445
     17 C          62.9711   83.9552   12.5673 C.3     1  UNL1        0.0210
     18 C          63.8563   82.7445   12.5451 C.3     1  UNL1        0.0722
     19 N          64.4884   82.3011   11.2589 N.3     1  UNL1       -0.2727
     20 C          64.2352   83.0684    9.9952 C.3     1  UNL1        0.0722
     21 C          63.3500   84.2791   10.0174 C.3     1  UNL1        0.0210
     22 C          64.0107   82.9708   11.2216 C.3     1  UNL1        0.0722
     23 C          63.2103   84.0655   11.2418 C.3     1  UNL1        0.0210
     24 O          63.4398   89.3017   14.2293 O.3     1  UNL1       -0.3415
     25 C          64.3354   88.1621   14.6154 C.3     1  UNL1        0.1751
@<TRIPOS>BOND
     1    10    11    1
     2    11     1    1
     3     1     2    2
     4     2     3    1
     5     3     4    2
     6     4     5    1
     7     5     6    2
     8     6     7    1
     9     7    12    1
    10    12    13    2
    11    12    14    1
    12    14    15    1
    13    15    16    1
    14    16    17    1
    15    17    18    1
    16    18    19    1
    17    19    20    1
    18    20    21    1
    19    19    22    1
    20    22    23    1
    21     7     8    2
    22     8     9    1
    23     9    24    1
    24    24    25    1
    25     9     1    1
    26     8     4    1
    27    21    16    1
    28    23    16    1
@<TRIPOS>MOLECULE
*****
 25 28 0 0 0
SMALL
GASTEIGER

@<TRIPOS>ATOM
      1 C          62.3543   89.1599   10.4574 C.2     1  UNL1        0.1475
      2 C          62.7246   90.5269    9.9635 C.2     1  UNL1        0.0367
      3 C          63.5124   91.4537   10.8414 C.2     1  UNL1        0.0217
      4 C          63.9297   91.0133   12.2132 C.2     1  UNL1        0.0804
      5 N          64.7059   91.7029   13.2958 N.2     1  UNL1       -0.2439
      6 C          64.8152   90.7619   14.4589 C.2     1  UNL1        0.1050
      7 C          64.1066   89.4909   14.0951 C.2     1  UNL1        0.0949
      8 C          63.5594   89.6462   12.7071 C.2     1  UNL1        0.0372
      9 C          62.7716   88.7195   11.8293 C.3     1  UNL1        0.1952
     10 C          60.0803   88.1220    9.7491 C.3     1  UNL1        0.2521
     11 O          61.5665   88.2331    9.5796 O.2     1  UNL1       -0.4729
     12 C          63.9694   88.2775   14.9662 C.2     1  UNL1        0.3426
     13 O          63.2168   88.3650   16.2608 O.2     1  UNL1       -0.2448
     14 O          64.5848   86.9767   14.5428 O.3     1  UNL1       -0.4454
     15 C          64.3510   85.7372   15.3544 C.3     1  UNL1        0.2087
     16 C          63.8983   84.4749   14.6823 C.3     1  UNL1        0.0445
     17 C          62.6459   83.7886   15.1411 C.3     1  UNL1        0.0210
     18 C          62.1932   82.5262   14.4690 C.3     1  UNL1        0.0722
     19 N          62.9930   81.9502   13.3382 N.3     1  UNL1       -0.2727
     20 C          64.2454   82.6366   12.8795 C.3     1  UNL1        0.0722
     21 C          64.6980   83.8989   13.5515 C.3     1  UNL1        0.0210
     22 C          63.2809   82.6440   13.6755 C.3     1  UNL1        0.0722
     23 C          63.6901   83.7854   14.2833 C.3     1  UNL1        0.0210
     24 O          62.4013   87.3525   12.3232 O.3     1  UNL1       -0.3415
     25 C          62.7068   86.1448   11.4876 C.3     1  UNL1        0.1751
@<TRIPOS>BOND
     1    10    11    1
     2    11     1    1
     3     1     2    2
     4     2     3    1
     5     3     4    2
     6     4     5    1
     7     5     6    2
     8     6     7    1
     9     7    12    1
    10    12    13    2
    11    12    14    1
    12    14    15    1
    13    15    16    1
    14    16    17    1
    15    17    18    1
    16    18    19    1
    17    19    20    1
    18    20    21    1
    19    19    22    1
    20    22    23    1
    21     7     8    2
    22     8     9    1
    23     9    24    1
    24    24    25    1
    25     9     1    1
    26     8     4    1
    27    21    16    1
    28    23    16    1
@<TRIPOS>MOLECULE
*****
 25 28 0 0 0
SMALL
GASTEIGER

@<TRIPOS>ATOM
      1 C          62.7847   85.0438    9.9841 C.2     1  UNL1        0.1475
      2 C          63.4622   83.8619    9.3565 C.2     1  UNL1        0.0367
      3 C          64.0548   82.7899   10.2224 C.2     1  UNL1        0.0217
      4 C          63.9698   82.9000   11.7160 C.2     1  UNL1        0.0804
      5 N          64.4579   82.0065   12.8176 N.2     1  UNL1       -0.2439
      6 C          64.0820   82.6364   14.1260 C.2     1  UNL1        0.1050
      7 C          63.3616   83.9190   13.8331 C.2     1  UNL1        0.0949
      8 C          63.2923   84.0820   12.3436 C.2     1  UNL1        0.0372
      9 C          62.6998   85.1539   11.4776 C.3     1  UNL1        0.1952
     10 C          61.5323   85.7527    7.8210 C.3     1  UNL1        0.2521
     11 O          62.1922   86.1158    9.1182 O.2     1  UNL1       -0.4729
     12 C          62.8078   84.8715   14.8509 C.2     1  UNL1        0.3426
     13 O          61.3565   84.8093   15.2247 O.2     1  UNL1       -0.2448
     14 O          63.7054   85.8862   15.4950 O.3     1  UNL1       -0.4454
     15 C          64.3637   86.9433   14.6589 C.3     1  UNL1        0.2087
     16 C          64.1162   88.3934   14.9518 C.3     1  UNL1        0.0445
     17 C          63.5591   88.8053   16.2823 C.3     1  UNL1        0.0210
     18 C          63.3116   90.2555   16.5753 C.3     1  UNL1        0.0722
     19 N          63.6210   91.2937   15.5377 N.3     1  UNL1       -0.2727
     20 C          64.1780   90.8818   14.2073 C.3     1  UNL1        0.0722
     21 C          64.4256   89.4317   13.9143 C.3     1  UNL1        0.0210
     22 C          63.7735   90.5113   15.3312 C.3     1  UNL1        0.0722
     23 C          63.9973   89.2001   15.0664 C.3     1  UNL1        0.0210
     24 O          62.0222   86.3359   12.1052 O.3     1  UNL1       -0.3415
     25 C          62.4051   87.7263   11.6926 C.3     1  UNL1        0.1751
@<TRIPOS>BOND
     1    10    11    1
     2    11     1    1
     3     1     2    2
     4     2     3    1
     5     3     4    2
     6     4     5    1
     7     5     6    2
     8     6     7    1
     9     7    12    1
    10    12    13    2
    11    12    14    1
    12    14    15    1
    13    15    16    1
    14    16    17    1
    15    17    18    1
    16    18    19    1
    17    19    20    1
    18    20    21    1
    19    19    22    1
    20    22    23    1
    21     7     8    2
    22     8     9    1
    23     9    24    1
    24    24    25    1
    25     9     1    1
    26     8     4    1
    27    21    16    1
    28    23    16    1
@<TRIPOS>MOLECULE
*****
 25 28 0 0 0
SMALL
GASTEIGER

@<TRIPOS>ATOM
      1 C          66.3751   93.2350   13.5205 C.2     1  UNL1        0.1475
      2 C          66.3854   93.9779   12.2175 C.2     1  UNL1        0.0367
      3 C          65.5158   93.5180   11.0850 C.2     1  UNL1        0.0217
      4 C          64.6360   92.3152   11.2557 C.2     1  UNL1        0.0804
      5 N          63.6785   91.6319   10.3249 N.2     1  UNL1       -0.2439
      6 C          63.0766   90.4666   11.0528 C.2     1  UNL1        0.1050
      7 C          63.6619   90.4298   12.4334 C.2     1  UNL1        0.0949
      8 C          64.6257   91.5723   12.5588 C.2     1  UNL1        0.0372
      9 C          65.4953   92.0322   13.6912 C.3     1  UNL1        0.1952
     10 C          68.4650   92.9078   15.0288 C.3     1  UNL1        0.2521
     11 O          67.2447   93.6949   14.6529 O.2     1  UNL1       -0.4729
     12 C          63.3400   89.4266   13.5010 C.2     1  UNL1        0.3426
     13 O          62.4775   89.8194   14.6637 O.2     1  UNL1       -0.2448
     14 O          63.8806   88.0306   13.4061 O.3     1  UNL1       -0.4454
     15 C          64.3546   87.3243   14.6415 C.3     1  UNL1        0.2087
     16 C          64.0650   85.8645   14.8287 C.3     1  UNL1        0.0445
     17 C          64.7761   84.8451   13.9887 C.3     1  UNL1        0.0210
     18 C          64.4865   83.3853   14.1758 C.3     1  UNL1        0.0722
     19 N          63.4859   82.9448   15.2029 N.3     1  UNL1       -0.2727
     20 C          62.7749   83.9641   16.0428 C.3     1  UNL1        0.0722
     21 C          63.0644   85.4240   15.8557 C.3     1  UNL1        0.0210
     22 C          63.6113   83.7559   15.1367 C.3     1  UNL1        0.0722
     23 C          63.8732   85.0759   14.9674 C.3     1  UNL1        0.0210
     24 O          65.4850   91.2893   14.9942 O.3     1  UNL1       -0.3415
     25 C          64.7208   91.8363   16.1634 C.3     1  UNL1        0.1751
@<TRIPOS>BOND
     1    10    11    1
     2    11     1    1
     3     1     2    2
     4     2     3    1
     5     3     4    2
     6     4     5    1
     7     5     6    2
     8     6     7    1
     9     7    12    1
    10    12    13    2
    11    12    14    1
    12    14    15    1
    13    15    16    1
    14    16    17    1
    15    17    18    1
    16    18    19    1
    17    19    20    1
    18    20    21    1
    19    19    22    1
    20    22    23    1
    21     7     8    2
    22     8     9    1
    23     9    24    1
    24    24    25    1
    25     9     1    1
    26     8     4    1
    27    21    16    1
    28    23    16    1
@<TRIPOS>MOLECULE
*****
 25 28 0 0 0
SMALL
GASTEIGER

@<TRIPOS>ATOM
      1 C          61.7842   87.4556   10.3153 C.2     1  UNL1        0.1475
      2 C          61.9171   86.0335   10.7732 C.2     1  UNL1        0.0367
      3 C          62.6555   85.7196   12.0406 C.2     1  UNL1        0.0217
      4 C          63.2611   86.8279   12.8500 C.2     1  UNL1        0.0804
      5 N          64.0401   86.8245   14.1318 N.2     1  UNL1       -0.2439
      6 C          64.3886   88.2447   14.4660 C.2     1  UNL1        0.1050
      7 C          63.8250   89.1257   13.3907 C.2     1  UNL1        0.0949
      8 C          63.1281   88.2500   12.3919 C.2     1  UNL1        0.0372
      9 C          62.3897   88.5639   11.1246 C.3     1  UNL1        0.1952
     10 C          60.0591   86.7862    8.4916 C.3     1  UNL1        0.2521
     11 O          61.0457   87.7696    9.0479 O.2     1  UNL1       -0.4729
     12 C          63.9384   90.6200   13.3257 C.2     1  UNL1        0.3426
     13 O          63.4277   91.4608   14.4580 O.2     1  UNL1       -0.2448
     14 O          64.5625   91.2734   12.1284 O.3     1  UNL1       -0.4454
     15 C          65.5517   92.3859   12.3116 C.3     1  UNL1        0.2087
     16 C          66.3770   92.8547   11.1501 C.3     1  UNL1        0.0445
     17 C          67.5511   92.0432   10.6883 C.3     1  UNL1        0.0210
     18 C          68.3764   92.5119    9.5268 C.3     1  UNL1        0.0722
     19 N          68.0277   93.7921    8.8270 N.3     1  UNL1       -0.2727
     20 C          66.8536   94.6035    9.2887 C.3     1  UNL1        0.0722
     21 C          66.0283   94.1348   10.4503 C.3     1  UNL1        0.0210
     22 C          67.5459   93.5759    9.4588 C.3     1  UNL1        0.0722
     23 C          66.7997   93.1521   10.5091 C.3     1  UNL1        0.0210
     24 O          62.2568   89.9861   10.6666 O.3     1  UNL1       -0.3415
     25 C          60.9661   90.7224   10.8712 C.3     1  UNL1        0.1751
@<TRIPOS>BOND
     1    10    11    1
     2    11     1    1
     3     1     2    2
     4     2     3    1
     5     3     4    2
     6     4     5    1
     7     5     6    2
     8     6     7    1
     9     7    12    1
    10    12    13    2
    11    12    14    1
    12    14    15    1
    13    15    16    1
    14    16    17    1
    15    17    18    1
    16    18    19    1
    17    19    20    1
    18    20    21    1
    19    19    22    1
    20    22    23    1
    21     7     8    2
    22     8     9    1
    23     9    24    1
    24    24    25    1
    25     9     1    1
    26     8     4    1
    27    21    16    1
    28    23    16    1
@<TRIPOS>MOLECULE
*****
 25 28 0 0 0
SMALL
GASTEIGER

@<TRIPOS>ATOM
      1 C          63.6283   90.2124   12.6608 C.2     1  UNL1        0.1475
      2 C          63.1147   90.6157   11.3105 C.2     1  UNL1        0.0367
      3 C          62.5101   89.5880   10.4002 C.2     1  UNL1        0.0217
      4 C          62.4193   88.1570   10.8405 C.2     1  UNL1        0.0804
      5 N          61.8787   86.9315   10.1651 N.2     1  UNL1       -0.2439
      6 C          62.0583   85.7708   11.0982 C.2     1  UNL1        0.1050
      7 C          62.7098   86.2789   12.3501 C.2     1  UNL1        0.0949
      8 C          62.9329   87.7536   12.1909 C.2     1  UNL1        0.0372
      9 C          63.5374   88.7813   13.1010 C.3     1  UNL1        0.1952
     10 C          65.3434   92.1190   13.0769 C.3     1  UNL1        0.2521
     11 O          64.2328   91.2401   13.5710 O.2     1  UNL1       -0.4729
     12 C          63.0742   85.4566   13.5505 C.2     1  UNL1        0.3426
     13 O          61.9971   84.9056   14.4372 O.2     1  UNL1       -0.2448
     14 O          64.5157   85.1852   13.8642 O.3     1  UNL1       -0.4454
     15 C          65.0892   83.8187   13.6327 C.3     1  UNL1        0.2087
     16 C          64.3515   82.8305   12.7788 C.3     1  UNL1        0.0445
     17 C          64.4422   82.9163   11.2839 C.3     1  UNL1        0.0210
     18 C          63.7045   81.9281   10.4298 C.3     1  UNL1        0.0722
     19 N          62.8762   80.8542   11.0707 N.3     1  UNL1       -0.2727
     20 C          62.7855   80.7684   12.5654 C.3     1  UNL1        0.0722
     21 C          63.5232   81.7566   13.4195 C.3     1  UNL1        0.0210
     22 C          63.2625   81.3731   11.5801 C.3     1  UNL1        0.0722
     23 C          63.9295   82.2666   12.3523 C.3     1  UNL1        0.0210
     24 O          64.0511   88.3780   14.4514 O.3     1  UNL1       -0.3415
     25 C          63.4310   88.9506   15.6914 C.3     1  UNL1        0.1751
@<TRIPOS>BOND
     1    10    11    1
     2    11     1    1
     3     1     2    2
     4     2     3    1
     5     3     4    2
     6     4     5    1
     7     5     6    2
     8     6     7    1
     9     7    12    1
    10    12    13    2
    11    12    14    1
    12    14    15    1
    13    15    16    1
    14    16    17    1
    15    17    18    1
    16    18    19    1
    17    19    20    1
    18    20    21    1
    19    19    22    1
    20    22    23    1
    21     7     8    2
    22     8     9    1
    23     9    24    1
    24    24    25    1
    25     9     1    1
    26     8     4    1
    27    21    16    1
    28    23    16    1
@<TRIPOS>MOLECULE
*****
 25 28 0 0 0
SMALL
GASTEIGER

@<TRIPOS>ATOM
      1 C          63.8760   90.0325   13.0360 C.2     1  UNL1        0.1475
      2 C          63.3239   91.1695   12.2283 C.2     1  UNL1        0.0367
      3 C          62.4012   90.8939   11.0781 C.2     1  UNL1        0.0217
      4 C          62.0308   89.4813   10.7358 C.2     1  UNL1        0.0804
      5 N          61.1501   88.9056    9.6666 N.2     1  UNL1       -0.2439
      6 C          61.1580   87.4129    9.8136 C.2     1  UNL1        0.1050
      7 C          62.0435   87.0659   10.9735 C.2     1  UNL1        0.0949
      8 C          62.5829   88.3443   11.5435 C.2     1  UNL1        0.0372
      9 C          63.5056   88.6199   12.6936 C.3     1  UNL1        0.1952
     10 C          64.3043   91.0743   15.3772 C.3     1  UNL1        0.2521
     11 O          64.7987   90.3081   14.1862 O.2     1  UNL1       -0.4729
     12 C          62.3379   85.6834   11.4754 C.2     1  UNL1        0.3426
     13 O          62.9264   84.6594   10.5507 O.2     1  UNL1       -0.2448
     14 O          62.0438   85.3248   12.9019 O.3     1  UNL1       -0.4454
     15 C          62.9014   84.3220   13.6152 C.3     1  UNL1        0.2087
     16 C          62.6416   82.8549   13.4421 C.3     1  UNL1        0.0445
     17 C          61.6722   82.1531   14.3466 C.3     1  UNL1        0.0210
     18 C          61.4123   80.6859   14.1736 C.3     1  UNL1        0.0722
     19 N          62.1219   79.9205   13.0962 N.3     1  UNL1       -0.2727
     20 C          63.0912   80.6223   12.1918 C.3     1  UNL1        0.0722
     21 C          63.3510   82.0894   12.3648 C.3     1  UNL1        0.0210
     22 C          62.2968   80.7232   13.1525 C.3     1  UNL1        0.0722
     23 C          62.5317   82.0498   13.3089 C.3     1  UNL1        0.0210
     24 O          64.0577   87.4829   13.5013 O.3     1  UNL1       -0.3415
     25 C          63.9569   87.5075   14.9977 C.3     1  UNL1        0.1751
@<TRIPOS>BOND
     1    10    11    1
     2    11     1    1
     3     1     2    2
     4     2     3    1
     5     3     4    2
     6     4     5    1
     7     5     6    2
     8     6     7    1
     9     7    12    1
    10    12    13    2
    11    12    14    1
    12    14    15    1
    13    15    16    1
    14    16    17    1
    15    17    18    1
    16    18    19    1
    17    19    20    1
    18    20    21    1
    19    19    22    1
    20    22    23    1
    21     7     8    2
    22     8     9    1
    23     9    24    1
    24    24    25    1
    25     9     1    1
    26     8     4    1
    27    21    16    1
    28    23    16    1
