@<TRIPOS>MOLECULE
*****
 24 27 0 0 0
SMALL
GASTEIGER

@<TRIPOS>ATOM
      1 C          59.4171   88.9845    7.2978 C.ar    1  UNL1       -0.0209
      2 C          59.3029   87.4894    7.3381 C.ar    1  UNL1       -0.0041
      3 C          60.0226   86.7105    8.3990 C.ar    1  UNL1        0.0048
      4 C          60.8566   87.4268    9.4195 C.ar    1  UNL1        0.0623
      5 C          60.9708   88.9218    9.3792 C.ar    1  UNL1        0.0771
      6 C          60.2510   89.7007    8.3183 C.ar    1  UNL1        0.0125
      7 N          61.8048   89.6381   10.3997 N.am    1  UNL1       -0.1721
      8 C          62.5245   88.8593   11.4606 C.2     1  UNL1        0.3160
      9 O          63.3585   89.5755   12.4811 O.2     1  UNL1       -0.2638
     10 C          62.4103   87.3641   11.5008 C.2     1  UNL1        0.2907
     11 N          63.0005   86.3369   12.4208 N.2     1  UNL1       -0.0256
     12 C          62.5313   84.9858   11.9689 C.2     1  UNL1        0.3765
     13 N          61.6511   85.1780   10.7696 N.2     1  UNL1       -0.0302
     14 C          61.5763   86.6479   10.4803 C.2     1  UNL1        0.2419
     15 C          62.8810   83.6729   12.6046 C.ar    1  UNL1        0.0989
     16 C          62.2437   83.2750   13.9029 C.ar    1  UNL1        0.0085
     17 C          62.5934   81.9621   14.5386 C.ar    1  UNL1        0.0003
     18 C          63.5803   81.0472   13.8761 C.ar    1  UNL1        0.0009
     19 C          64.2175   81.4451   12.5778 C.ar    1  UNL1        0.0116
     20 C          63.8678   82.7580   11.9421 C.ar    1  UNL1        0.0651
     21 CL         64.5051   83.1560   10.6437 Cl      1  UNL1       -0.0820
     22 C          58.6973   89.7633    6.2370 C.3     1  UNL1        0.0264
     23 C          58.7094   91.9102    4.7740 C.3     1  UNL1        0.0004
     24 C          59.4431   90.7645    5.4056 C.3     1  UNL1        0.0047
@<TRIPOS>BOND
     1    23    24    1
     2    24    22    1
     3    22     1    1
     4     1     2   ar
     5     2     3   ar
     6     3     4   ar
     7     4     5   ar
     8     5     6   ar
     9     5     7    2
    10     7     8    1
    11     8     9    2
    12     8    10    1
    13    10    11    2
    14    11    12    1
    15    12    15    1
    16    15    16   ar
    17    16    17   ar
    18    17    18   ar
    19    18    19   ar
    20    19    20   ar
    21    20    21    1
    22    12    13    2
    23    13    14    1
    24     6     1   ar
    25    14    10    1
    26    14     4    2
    27    20    15   ar
@<TRIPOS>MOLECULE
*****
 24 27 0 0 0
SMALL
GASTEIGER

@<TRIPOS>ATOM
      1 C          63.0556   82.4896   12.5615 C.ar    1  UNL1       -0.0209
      2 C          63.8230   83.0313   13.7309 C.ar    1  UNL1       -0.0041
      3 C          63.9787   84.5131   13.9044 C.ar    1  UNL1        0.0048
      4 C          63.3670   85.4532   12.9084 C.ar    1  UNL1        0.0623
      5 C          62.5997   84.9115   11.7390 C.ar    1  UNL1        0.0771
      6 C          62.4440   83.4297   11.5655 C.ar    1  UNL1        0.0125
      7 N          61.9880   85.8516   10.7429 N.am    1  UNL1       -0.1721
      8 C          62.1437   87.3334   10.9164 C.2     1  UNL1        0.3160
      9 O          61.5320   88.2735    9.9204 O.2     1  UNL1       -0.2638
     10 C          62.9111   87.8751   12.0859 C.2     1  UNL1        0.2907
     11 N          63.2289   89.2766   12.5155 N.2     1  UNL1       -0.0256
     12 C          64.0370   89.2027   13.7771 C.2     1  UNL1        0.3765
     13 N          64.2186   87.7555   14.1271 N.2     1  UNL1       -0.0302
     14 C          63.5227   86.9350   13.0819 C.2     1  UNL1        0.2419
     15 C          64.5700   90.3710   14.5524 C.ar    1  UNL1        0.0989
     16 C          65.6787   91.2059   13.9834 C.ar    1  UNL1        0.0085
     17 C          66.2115   92.3741   14.7588 C.ar    1  UNL1        0.0003
     18 C          65.6357   92.7075   16.1032 C.ar    1  UNL1        0.0009
     19 C          64.5270   91.8726   16.6722 C.ar    1  UNL1        0.0116
     20 C          63.9941   90.7044   15.8968 C.ar    1  UNL1        0.0651
     21 CL         62.8854   89.8695   16.4658 Cl      1  UNL1       -0.0820
     22 C          62.8999   81.0079   12.3880 C.3     1  UNL1        0.0264
     23 C          60.9158   80.7526   14.0457 C.3     1  UNL1        0.0004
     24 C          62.1641   80.2052   13.4196 C.3     1  UNL1        0.0047
@<TRIPOS>BOND
     1    23    24    1
     2    24    22    1
     3    22     1    1
     4     1     2   ar
     5     2     3   ar
     6     3     4   ar
     7     4     5   ar
     8     5     6   ar
     9     5     7    2
    10     7     8    1
    11     8     9    2
    12     8    10    1
    13    10    11    2
    14    11    12    1
    15    12    15    1
    16    15    16   ar
    17    16    17   ar
    18    17    18   ar
    19    18    19   ar
    20    19    20   ar
    21    20    21    1
    22    12    13    2
    23    13    14    1
    24     6     1   ar
    25    14    10    1
    26    14     4    2
    27    20    15   ar
@<TRIPOS>MOLECULE
*****
 24 27 0 0 0
SMALL
GASTEIGER

@<TRIPOS>ATOM
      1 C          64.6706   91.0025   13.9781 C.ar    1  UNL1       -0.0209
      2 C          64.9836   89.7997   14.8179 C.ar    1  UNL1       -0.0041
      3 C          64.4962   88.4446   14.3984 C.ar    1  UNL1        0.0048
      4 C          63.6956   88.2922   13.1391 C.ar    1  UNL1        0.0623
      5 C          63.3826   89.4949   12.2993 C.ar    1  UNL1        0.0771
      6 C          63.8700   90.8500   12.7188 C.ar    1  UNL1        0.0125
      7 N          62.5820   89.3425   11.0399 N.am    1  UNL1       -0.1721
      8 C          62.0945   87.9874   10.6205 C.2     1  UNL1        0.3160
      9 O          61.2940   87.8350    9.3612 O.2     1  UNL1       -0.2638
     10 C          62.4076   86.7846   11.4604 C.2     1  UNL1        0.2907
     11 N          62.0645   85.3330   11.3020 N.2     1  UNL1       -0.0256
     12 C          62.6530   84.5883   12.4635 C.2     1  UNL1        0.3765
     13 N          63.3598   85.5796   13.3396 N.2     1  UNL1       -0.0302
     14 C          63.2082   86.9370   12.7197 C.2     1  UNL1        0.2419
     15 C          62.5523   83.1114   12.7062 C.ar    1  UNL1        0.0989
     16 C          61.8930   82.5994   13.9524 C.ar    1  UNL1        0.0085
     17 C          61.7924   81.1226   14.1951 C.ar    1  UNL1        0.0003
     18 C          62.3509   80.1578   13.1915 C.ar    1  UNL1        0.0009
     19 C          63.0102   80.6699   11.9452 C.ar    1  UNL1        0.0116
     20 C          63.1109   82.1466   11.7026 C.ar    1  UNL1        0.0651
     21 CL         63.7701   82.6587   10.4563 Cl      1  UNL1       -0.0820
     22 C          65.1580   92.3576   14.3975 C.3     1  UNL1        0.0264
     23 C          67.0763   92.7356   16.1085 C.3     1  UNL1        0.0004
     24 C          66.6131   92.5735   14.6910 C.3     1  UNL1        0.0047
@<TRIPOS>BOND
     1    23    24    1
     2    24    22    1
     3    22     1    1
     4     1     2   ar
     5     2     3   ar
     6     3     4   ar
     7     4     5   ar
     8     5     6   ar
     9     5     7    2
    10     7     8    1
    11     8     9    2
    12     8    10    1
    13    10    11    2
    14    11    12    1
    15    12    15    1
    16    15    16   ar
    17    16    17   ar
    18    17    18   ar
    19    18    19   ar
    20    19    20   ar
    21    20    21    1
    22    12    13    2
    23    13    14    1
    24     6     1   ar
    25    14    10    1
    26    14     4    2
    27    20    15   ar
@<TRIPOS>MOLECULE
*****
 24 27 0 0 0
SMALL
GASTEIGER

@<TRIPOS>ATOM
      1 C          66.1800   92.7897   13.9326 C.ar    1  UNL1       -0.0209
      2 C          65.5489   93.0409   12.5953 C.ar    1  UNL1       -0.0041
      3 C          64.6713   91.9963   11.9719 C.ar    1  UNL1        0.0048
      4 C          64.4248   90.7004   12.6859 C.ar    1  UNL1        0.0623
      5 C          65.0559   90.4491   14.0233 C.ar    1  UNL1        0.0771
      6 C          65.9335   91.4938   14.6466 C.ar    1  UNL1        0.0125
      7 N          64.8095   89.1531   14.7373 N.am    1  UNL1       -0.1721
      8 C          63.9319   88.1085   14.1140 C.2     1  UNL1        0.3160
      9 O          63.6854   86.8126   14.8279 O.2     1  UNL1       -0.2638
     10 C          63.3008   88.3598   12.7765 C.2     1  UNL1        0.2907
     11 N          62.3962   87.5237   11.9206 N.2     1  UNL1       -0.0256
     12 C          62.0837   88.3029   10.6776 C.2     1  UNL1        0.3765
     13 N          62.7950   89.6205   10.7653 N.2     1  UNL1       -0.0302
     14 C          63.5473   89.6557   12.0626 C.2     1  UNL1        0.2419
     15 C          61.2126   87.8448    9.5455 C.ar    1  UNL1        0.0989
     16 C          60.1341   88.7438    9.0177 C.ar    1  UNL1        0.0085
     17 C          59.2631   88.2857    7.8857 C.ar    1  UNL1        0.0003
     18 C          59.4706   86.9286    7.2815 C.ar    1  UNL1        0.0009
     19 C          60.5491   86.0295    7.8093 C.ar    1  UNL1        0.0116
     20 C          61.4201   86.4876    8.9413 C.ar    1  UNL1        0.0651
     21 CL         62.4986   85.5886    9.4691 Cl      1  UNL1       -0.0820
     22 C          67.0575   93.8343   14.5560 C.3     1  UNL1        0.0264
     23 C          69.1305   92.7093   15.6454 C.3     1  UNL1        0.0004
     24 C          67.8654   93.5045   15.7760 C.3     1  UNL1        0.0047
@<TRIPOS>BOND
     1    23    24    1
     2    24    22    1
     3    22     1    1
     4     1     2   ar
     5     2     3   ar
     6     3     4   ar
     7     4     5   ar
     8     5     6   ar
     9     5     7    2
    10     7     8    1
    11     8     9    2
    12     8    10    1
    13    10    11    2
    14    11    12    1
    15    12    15    1
    16    15    16   ar
    17    16    17   ar
    18    17    18   ar
    19    18    19   ar
    20    19    20   ar
    21    20    21    1
    22    12    13    2
    23    13    14    1
    24     6     1   ar
    25    14    10    1
    26    14     4    2
    27    20    15   ar
@<TRIPOS>MOLECULE
*****
 24 27 0 0 0
SMALL
GASTEIGER

@<TRIPOS>ATOM
      1 C          62.5050   82.2310   13.5318 C.ar    1  UNL1       -0.0209
      2 C          63.0274   83.1197   12.4421 C.ar    1  UNL1       -0.0041
      3 C          63.3803   84.5463   12.7424 C.ar    1  UNL1        0.0048
      4 C          63.2109   85.0842   14.1323 C.ar    1  UNL1        0.0623
      5 C          62.6885   84.1956   15.2219 C.ar    1  UNL1        0.0771
      6 C          62.3356   82.7689   14.9216 C.ar    1  UNL1        0.0125
      7 N          62.5191   84.7335   16.6119 N.am    1  UNL1       -0.1721
      8 C          62.8720   86.1601   16.9121 C.2     1  UNL1        0.3160
      9 O          62.7026   86.6981   18.3020 O.2     1  UNL1       -0.2638
     10 C          63.3944   87.0488   15.8224 C.2     1  UNL1        0.2907
     11 N          63.8226   88.4864   15.8185 N.2     1  UNL1       -0.0256
     12 C          64.2567   88.8369   14.4261 C.2     1  UNL1        0.3765
     13 N          64.0968   87.6160   13.5696 N.2     1  UNL1       -0.0302
     14 C          63.5638   86.5109   14.4325 C.2     1  UNL1        0.2419
     15 C          64.7621   90.1737   13.9704 C.ar    1  UNL1        0.0989
     16 C          65.8699   90.8521   14.7203 C.ar    1  UNL1        0.0085
     17 C          66.3752   92.1889   14.2645 C.ar    1  UNL1        0.0003
     18 C          65.7727   92.8471   13.0588 C.ar    1  UNL1        0.0009
     19 C          64.6649   92.1687   12.3089 C.ar    1  UNL1        0.0116
     20 C          64.1596   90.8320   12.7647 C.ar    1  UNL1        0.0651
     21 CL         63.0517   90.1535   12.0148 Cl      1  UNL1       -0.0820
     22 C          62.1521   80.8043   13.2315 C.3     1  UNL1        0.0264
     23 C          59.7513   80.3619   14.1206 C.3     1  UNL1        0.0004
     24 C          61.2197   80.0558   14.1372 C.3     1  UNL1        0.0047
@<TRIPOS>BOND
     1    23    24    1
     2    24    22    1
     3    22     1    1
     4     1     2   ar
     5     2     3   ar
     6     3     4   ar
     7     4     5   ar
     8     5     6   ar
     9     5     7    2
    10     7     8    1
    11     8     9    2
    12     8    10    1
    13    10    11    2
    14    11    12    1
    15    12    15    1
    16    15    16   ar
    17    16    17   ar
    18    17    18   ar
    19    18    19   ar
    20    19    20   ar
    21    20    21    1
    22    12    13    2
    23    13    14    1
    24     6     1   ar
    25    14    10    1
    26    14     4    2
    27    20    15   ar
@<TRIPOS>MOLECULE
*****
 24 27 0 0 0
SMALL
GASTEIGER

@<TRIPOS>ATOM
      1 C          65.7966   93.8450   12.0075 C.ar    1  UNL1       -0.0209
      2 C          65.1690   93.6574   10.6581 C.ar    1  UNL1       -0.0041
      3 C          64.3607   92.4268   10.3714 C.ar    1  UNL1        0.0048
      4 C          64.1799   91.3838   11.4342 C.ar    1  UNL1        0.0623
      5 C          64.8075   91.5714   12.7836 C.ar    1  UNL1        0.0771
      6 C          65.6158   92.8021   13.0703 C.ar    1  UNL1        0.0125
      7 N          64.6267   90.5284   13.8464 N.am    1  UNL1       -0.1721
      8 C          63.8184   89.2978   13.5597 C.2     1  UNL1        0.3160
      9 O          63.6376   88.2548   14.6225 O.2     1  UNL1       -0.2638
     10 C          63.1909   89.1102   12.2102 C.2     1  UNL1        0.2907
     11 N          62.3466   88.0091   11.6403 N.2     1  UNL1       -0.0256
     12 C          62.0056   88.3716   10.2253 C.2     1  UNL1        0.3765
     13 N          62.6391   89.6967    9.9207 N.2     1  UNL1       -0.0302
     14 C          63.3716   90.1531   11.1475 C.2     1  UNL1        0.2419
     15 C          61.1766   87.5527    9.2807 C.ar    1  UNL1        0.0989
     16 C          59.7583   87.9469    8.9927 C.ar    1  UNL1        0.0085
     17 C          58.9293   87.1281    8.0481 C.ar    1  UNL1        0.0003
     18 C          59.5187   85.9150    7.3915 C.ar    1  UNL1        0.0009
     19 C          60.9370   85.5208    7.6795 C.ar    1  UNL1        0.0116
     20 C          61.7659   86.3396    8.6241 C.ar    1  UNL1        0.0651
     21 CL         63.1843   85.9454    8.9122 Cl      1  UNL1       -0.0820
     22 C          66.6049   95.0757   12.2942 C.3     1  UNL1        0.0264
     23 C          66.5263   96.7830   10.3374 C.3     1  UNL1        0.0004
     24 C          66.1718   96.4024   11.7444 C.3     1  UNL1        0.0047
@<TRIPOS>BOND
     1    23    24    1
     2    24    22    1
     3    22     1    1
     4     1     2   ar
     5     2     3   ar
     6     3     4   ar
     7     4     5   ar
     8     5     6   ar
     9     5     7    2
    10     7     8    1
    11     8     9    2
    12     8    10    1
    13    10    11    2
    14    11    12    1
    15    12    15    1
    16    15    16   ar
    17    16    17   ar
    18    17    18   ar
    19    18    19   ar
    20    19    20   ar
    21    20    21    1
    22    12    13    2
    23    13    14    1
    24     6     1   ar
    25    14    10    1
    26    14     4    2
    27    20    15   ar
@<TRIPOS>MOLECULE
*****
 24 27 0 0 0
SMALL
GASTEIGER

@<TRIPOS>ATOM
      1 C          66.8376   93.2666   14.4403 C.ar    1  UNL1       -0.0209
      2 C          66.7249   93.0517   12.9601 C.ar    1  UNL1       -0.0041
      3 C          65.6885   92.1141   12.4151 C.ar    1  UNL1        0.0048
      4 C          64.7649   91.3916   13.3503 C.ar    1  UNL1        0.0623
      5 C          64.8776   91.6065   14.8305 C.ar    1  UNL1        0.0771
      6 C          65.9139   92.5441   15.3755 C.ar    1  UNL1        0.0125
      7 N          63.9539   90.8840   15.7659 N.am    1  UNL1       -0.1721
      8 C          62.9175   89.9464   15.2209 C.2     1  UNL1        0.3160
      9 O          61.9938   89.2239   16.1561 O.2     1  UNL1       -0.2638
     10 C          62.8048   89.7315   13.7406 C.2     1  UNL1        0.2907
     11 N          61.8885   88.8754   12.9177 N.2     1  UNL1       -0.0256
     12 C          62.2458   89.0688   11.4737 C.2     1  UNL1        0.3765
     13 N          63.3830   90.0445   11.4044 N.2     1  UNL1       -0.0302
     14 C          63.7285   90.4540   12.8054 C.2     1  UNL1        0.2419
     15 C          61.5824   88.4034   10.3045 C.ar    1  UNL1        0.0989
     16 C          62.0921   87.0846    9.8036 C.ar    1  UNL1        0.0085
     17 C          61.4286   86.4192    8.6344 C.ar    1  UNL1        0.0003
     18 C          60.2555   87.0726    7.9661 C.ar    1  UNL1        0.0009
     19 C          59.7457   88.3914    8.4669 C.ar    1  UNL1        0.0116
     20 C          60.4092   89.0568    9.6361 C.ar    1  UNL1        0.0651
     21 CL         59.8995   90.3757   10.1370 Cl      1  UNL1       -0.0820
     22 C          67.8739   94.2042   14.9852 C.3     1  UNL1        0.0264
     23 C          69.1394   92.3241   16.2557 C.3     1  UNL1        0.0004
     24 C          68.7599   93.7684   16.1145 C.3     1  UNL1        0.0047
@<TRIPOS>BOND
     1    23    24    1
     2    24    22    1
     3    22     1    1
     4     1     2   ar
     5     2     3   ar
     6     3     4   ar
     7     4     5   ar
     8     5     6   ar
     9     5     7    2
    10     7     8    1
    11     8     9    2
    12     8    10    1
    13    10    11    2
    14    11    12    1
    15    12    15    1
    16    15    16   ar
    17    16    17   ar
    18    17    18   ar
    19    18    19   ar
    20    19    20   ar
    21    20    21    1
    22    12    13    2
    23    13    14    1
    24     6     1   ar
    25    14    10    1
    26    14     4    2
    27    20    15   ar
@<TRIPOS>MOLECULE
*****
 24 27 0 0 0
SMALL
GASTEIGER

@<TRIPOS>ATOM
      1 C          62.6477   83.5844   12.6009 C.ar    1  UNL1       -0.0209
      2 C          63.6502   84.1096   13.5852 C.ar    1  UNL1       -0.0041
      3 C          63.9445   85.5793   13.6443 C.ar    1  UNL1        0.0048
      4 C          63.2361   86.5238   12.7189 C.ar    1  UNL1        0.0623
      5 C          62.2336   85.9985   11.7346 C.ar    1  UNL1        0.0771
      6 C          61.9393   84.5288   11.6756 C.ar    1  UNL1        0.0125
      7 N          61.5252   86.9430   10.8093 N.am    1  UNL1       -0.1721
      8 C          61.8194   88.4127   10.8683 C.2     1  UNL1        0.3160
      9 O          61.1111   89.3571    9.9430 O.2     1  UNL1       -0.2638
     10 C          62.8220   88.9379   11.8527 C.2     1  UNL1        0.2907
     11 N          63.3152   90.3251   12.1396 N.2     1  UNL1       -0.0256
     12 C          64.3283   90.2380   13.2423 C.2     1  UNL1        0.3765
     13 N          64.4613   88.7970   13.6368 N.2     1  UNL1       -0.0302
     14 C          63.5304   87.9934   12.7780 C.2     1  UNL1        0.2419
     15 C          65.0771   91.3898   13.8446 C.ar    1  UNL1        0.0989
     16 C          65.2195   91.4950   15.3341 C.ar    1  UNL1        0.0085
     17 C          65.9682   92.6468   15.9364 C.ar    1  UNL1        0.0003
     18 C          66.5745   93.6934   15.0493 C.ar    1  UNL1        0.0009
     19 C          66.4320   93.5882   13.5598 C.ar    1  UNL1        0.0116
     20 C          65.6833   92.4364   12.9575 C.ar    1  UNL1        0.0651
     21 CL         65.5408   92.3312   11.4679 Cl      1  UNL1       -0.0820
     22 C          62.3534   82.1147   12.5419 C.3     1  UNL1        0.0264
     23 C          63.8303   81.8868   10.4166 C.3     1  UNL1        0.0004
     24 C          63.0340   81.2541   11.5191 C.3     1  UNL1        0.0047
@<TRIPOS>BOND
     1    23    24    1
     2    24    22    1
     3    22     1    1
     4     1     2   ar
     5     2     3   ar
     6     3     4   ar
     7     4     5   ar
     8     5     6   ar
     9     5     7    2
    10     7     8    1
    11     8     9    2
    12     8    10    1
    13    10    11    2
    14    11    12    1
    15    12    15    1
    16    15    16   ar
    17    16    17   ar
    18    17    18   ar
    19    18    19   ar
    20    19    20   ar
    21    20    21    1
    22    12    13    2
    23    13    14    1
    24     6     1   ar
    25    14    10    1
    26    14     4    2
    27    20    15   ar
@<TRIPOS>MOLECULE
*****
 24 27 0 0 0
SMALL
GASTEIGER

@<TRIPOS>ATOM
      1 C          65.7581   94.5612   10.4404 C.ar    1  UNL1       -0.0209
      2 C          65.0958   93.2744   10.0461 C.ar    1  UNL1       -0.0041
      3 C          64.8949   92.1915   11.0644 C.ar    1  UNL1        0.0048
      4 C          65.3564   92.3954   12.4770 C.ar    1  UNL1        0.0623
      5 C          66.0187   93.6822   12.8713 C.ar    1  UNL1        0.0771
      6 C          66.2195   94.7651   11.8530 C.ar    1  UNL1        0.0125
      7 N          66.4802   93.8862   14.2839 N.am    1  UNL1       -0.1721
      8 C          66.2793   92.8033   15.3023 C.2     1  UNL1        0.3160
      9 O          66.7408   93.0072   16.7148 O.2     1  UNL1       -0.2638
     10 C          65.6170   91.5164   14.9079 C.2     1  UNL1        0.2907
     11 N          65.2857   90.2783   15.6871 N.2     1  UNL1       -0.0256
     12 C          64.6195   89.3091   14.7561 C.2     1  UNL1        0.3765
     13 N          64.5390   89.9483   13.4015 N.2     1  UNL1       -0.0302
     14 C          65.1556   91.3125   13.4954 C.2     1  UNL1        0.2419
     15 C          64.1211   87.9409   15.1164 C.ar    1  UNL1        0.0989
     16 C          64.4084   86.7767   14.2154 C.ar    1  UNL1        0.0085
     17 C          63.9101   85.4086   14.5757 C.ar    1  UNL1        0.0003
     18 C          63.1244   85.2047   15.8371 C.ar    1  UNL1        0.0009
     19 C          62.8371   86.3689   16.7382 C.ar    1  UNL1        0.0116
     20 C          63.3355   87.7371   16.3778 C.ar    1  UNL1        0.0651
     21 CL         63.0482   88.9014   17.2789 Cl      1  UNL1       -0.0820
     22 C          65.9589   95.6441    9.4221 C.3     1  UNL1        0.0264
     23 C          68.0655   94.4303    8.5062 C.3     1  UNL1        0.0004
     24 C          67.1860   95.6442    8.5594 C.3     1  UNL1        0.0047
@<TRIPOS>BOND
     1    23    24    1
     2    24    22    1
     3    22     1    1
     4     1     2   ar
     5     2     3   ar
     6     3     4   ar
     7     4     5   ar
     8     5     6   ar
     9     5     7    2
    10     7     8    1
    11     8     9    2
    12     8    10    1
    13    10    11    2
    14    11    12    1
    15    12    15    1
    16    15    16   ar
    17    16    17   ar
    18    17    18   ar
    19    18    19   ar
    20    19    20   ar
    21    20    21    1
    22    12    13    2
    23    13    14    1
    24     6     1   ar
    25    14    10    1
    26    14     4    2
    27    20    15   ar
