@<TRIPOS>MOLECULE
*****
 38 42 0 0 0
SMALL
GASTEIGER

@<TRIPOS>ATOM
      1 C          62.8609   84.8279   15.1537 C.ar    1  UNL1        0.0168
      2 C          62.4242   85.0237   16.5753 C.ar    1  UNL1        0.1003
      3 N          62.5315   86.3771   17.2131 N.ar    1  UNL1       -0.2249
      4 C          63.0755   87.5346   16.4294 C.ar    1  UNL1        0.1683
      5 N          63.1827   88.8880   17.0673 N.ar    1  UNL1       -0.2058
      6 C          63.7267   90.0455   16.2835 C.ar    1  UNL1        0.1865
      7 N          64.1634   89.8497   14.8619 N.ar    1  UNL1       -0.2565
      8 C          64.0561   88.4963   14.2241 C.ar    1  UNL1        0.2685
      9 O          64.4055   88.4834   13.1880 O.2     1  UNL1       -0.2665
     10 C          63.5122   87.3388   15.0078 C.ar    1  UNL1        0.0897
     11 C          63.4049   85.9854   14.3700 C.ar    1  UNL1        0.0030
     12 C          64.7074   91.0072   14.0782 C.ar    1  UNL1        0.0735
     13 C          64.2827   91.2147   12.6545 C.ar    1  UNL1        0.0544
     14 C          64.8267   92.3722   11.8708 C.ar    1  UNL1        0.1374
     15 O          64.4021   92.5798   10.4472 O.3     1  UNL1       -0.5054
     16 C          65.7953   93.3222   12.5107 C.ar    1  UNL1        0.0663
     17 C          66.2198   93.1147   13.9343 C.ar    1  UNL1        0.1446
     18 F          67.1884   94.0647   14.5741 F       1  UNL1       -0.2040
     19 C          65.6759   91.9572   14.7180 C.ar    1  UNL1        0.0475
     20 H          63.7971   91.9863   10.0475 H       1  UNL1        0.2922
     21 C          60.1438   80.5004   14.2101 C.3     1  UNL1        0.0311
     22 C          61.3951   81.3108   14.0440 C.ar    1  UNL1       -0.0210
     23 C          62.5391   80.7677   13.2400 C.ar    1  UNL1        0.0071
     24 C          63.7904   81.5781   13.0739 C.ar    1  UNL1        0.0574
     25 CL         64.9344   81.0351   12.2700 Cl      1  UNL1       -0.0823
     26 C          63.8977   82.9315   13.7118 C.ar    1  UNL1        0.0114
     27 C          62.7537   83.4745   14.5158 C.ar    1  UNL1        0.0018
     28 C          61.5024   82.6641   14.6819 C.ar    1  UNL1       -0.0042
     29 C          63.8416   85.7895   12.9483 C.3     1  UNL1        0.0995
     30 N          62.8176   85.6066   11.8676 N.3     1  UNL1       -0.2666
     31 C          62.8606   84.9018   11.0327 C.3     1  UNL1        0.0899
     32 C          61.5732   86.4442   11.8639 C.3     1  UNL1        0.0882
     33 C          61.6139   87.8454   11.3301 C.3     1  UNL1        0.0702
     34 C          62.3950   88.3123   10.1376 C.3     1  UNL1        0.0186
     35 C          62.1444   89.7812    9.9655 C.3     1  UNL1        0.0185
     36 C          61.2085   90.2221   11.0516 C.3     1  UNL1        0.0686
     37 N          60.8806   89.0257   11.8949 N.3     1  UNL1       -0.2974
     38 H          59.8758   88.8518   11.8731 H       1  UNL1        0.1232
@<TRIPOS>BOND
     1    21    22    1
     2    22    23   ar
     3    23    24   ar
     4    24    25    1
     5    24    26   ar
     6    26    27   ar
     7    27     1    1
     8     1     2   ar
     9     2     3   ar
    10     3     4   ar
    11     4     5   ar
    12     5     6   ar
    13     6     7   ar
    14     7    12    1
    15    12    13   ar
    16    13    14   ar
    17    14    15    1
    18    14    16   ar
    19    16    17   ar
    20    17    18    1
    21    17    19   ar
    22     7     8   ar
    23     8     9    2
    24     8    10   ar
    25    10    11   ar
    26    11    29    1
    27    29    30    1
    28    30    31    1
    29    30    32    1
    30    33    32    1
    31    33    34    1
    32    34    35    1
    33    35    36    1
    34    36    37    1
    35    27    28   ar
    36    28    22   ar
    37    11     1   ar
    38    37    33    1
    39    10     4   ar
    40    19    12   ar
    41    15    20    1
    42    37    38    1
@<TRIPOS>MOLECULE
*****
 38 42 0 0 0
SMALL
GASTEIGER

@<TRIPOS>ATOM
      1 C          62.7081   84.4245   14.6775 C.ar    1  UNL1        0.0168
      2 C          62.3171   84.4875   16.1242 C.ar    1  UNL1        0.1003
      3 N          62.4631   85.7718   16.8853 N.ar    1  UNL1       -0.2249
      4 C          63.0000   86.9931   16.1995 C.ar    1  UNL1        0.1683
      5 N          63.1459   88.2775   16.9606 N.ar    1  UNL1       -0.2058
      6 C          63.6828   89.4987   16.2749 C.ar    1  UNL1        0.1865
      7 N          64.0738   89.4357   14.8281 N.ar    1  UNL1       -0.2565
      8 C          63.9278   88.1514   14.0671 C.ar    1  UNL1        0.2685
      9 O          64.2457   88.2343   13.0241 O.2     1  UNL1       -0.2665
     10 C          63.3909   86.9301   14.7528 C.ar    1  UNL1        0.0897
     11 C          63.2450   85.6458   13.9918 C.ar    1  UNL1        0.0030
     12 C          64.6107   90.6569   14.1424 C.ar    1  UNL1        0.0735
     13 C          65.5139   91.5974   14.8839 C.ar    1  UNL1        0.0544
     14 C          66.0508   92.8187   14.1982 C.ar    1  UNL1        0.1374
     15 O          66.9539   93.7591   14.9397 O.3     1  UNL1       -0.5054
     16 C          65.6845   93.0995   12.7709 C.ar    1  UNL1        0.0663
     17 C          64.7814   92.1590   12.0294 C.ar    1  UNL1        0.1446
     18 F          64.4151   92.4399   10.6022 F       1  UNL1       -0.2040
     19 C          64.2445   90.9378   12.7151 C.ar    1  UNL1        0.0475
     20 H          67.1827   93.5837   15.8312 H       1  UNL1        0.2922
     21 C          63.9281   81.4487   10.5963 C.3     1  UNL1        0.0311
     22 C          63.1721   81.6523   11.8758 C.ar    1  UNL1       -0.0210
     23 C          62.2703   80.5715   12.3942 C.ar    1  UNL1        0.0071
     24 C          61.5144   80.7751   13.6737 C.ar    1  UNL1        0.0574
     25 CL         60.6125   79.6944   14.1921 Cl      1  UNL1       -0.0823
     26 C          61.6603   82.0595   14.4348 C.ar    1  UNL1        0.0114
     27 C          62.5621   83.1401   13.9164 C.ar    1  UNL1        0.0018
     28 C          63.3180   82.9366   12.6369 C.ar    1  UNL1       -0.0042
     29 C          63.6359   85.5827   12.5449 C.3     1  UNL1        0.0995
     30 N          62.5867   85.6953   11.4789 N.3     1  UNL1       -0.2666
     31 C          62.5795   85.1942   10.5070 C.3     1  UNL1        0.0899
     32 C          61.3879   86.5704   11.6959 C.3     1  UNL1        0.0882
     33 C          61.4145   88.0026   11.2508 C.3     1  UNL1        0.0702
     34 C          62.2111   88.5557   10.1065 C.3     1  UNL1        0.0186
     35 C          61.9380   90.0281   10.0204 C.3     1  UNL1        0.0185
     36 C          60.9725   90.3850   11.1115 C.3     1  UNL1        0.0686
     37 N          60.6490   89.1332   11.8719 N.3     1  UNL1       -0.2974
     38 H          59.6481   88.9444   11.8180 H       1  UNL1        0.1232
@<TRIPOS>BOND
     1    21    22    1
     2    22    23   ar
     3    23    24   ar
     4    24    25    1
     5    24    26   ar
     6    26    27   ar
     7    27     1    1
     8     1     2   ar
     9     2     3   ar
    10     3     4   ar
    11     4     5   ar
    12     5     6   ar
    13     6     7   ar
    14     7    12    1
    15    12    13   ar
    16    13    14   ar
    17    14    15    1
    18    14    16   ar
    19    16    17   ar
    20    17    18    1
    21    17    19   ar
    22     7     8   ar
    23     8     9    2
    24     8    10   ar
    25    10    11   ar
    26    11    29    1
    27    29    30    1
    28    30    31    1
    29    30    32    1
    30    33    32    1
    31    33    34    1
    32    34    35    1
    33    35    36    1
    34    36    37    1
    35    27    28   ar
    36    28    22   ar
    37    11     1   ar
    38    37    33    1
    39    10     4   ar
    40    19    12   ar
    41    15    20    1
    42    37    38    1
@<TRIPOS>MOLECULE
*****
 38 42 0 0 0
SMALL
GASTEIGER

@<TRIPOS>ATOM
      1 C          64.5403   89.4288   14.2239 C.ar    1  UNL1        0.0168
      2 C          64.7846   88.0326   14.7146 C.ar    1  UNL1        0.1003
      3 N          64.1312   86.8708   14.0266 N.ar    1  UNL1       -0.2249
      4 C          63.2335   87.1053   12.8480 C.ar    1  UNL1        0.1683
      5 N          62.5801   85.9434   12.1600 N.ar    1  UNL1       -0.2058
      6 C          61.6824   86.1778   10.9813 C.ar    1  UNL1        0.1865
      7 N          61.4382   87.5742   10.4907 N.ar    1  UNL1       -0.2565
      8 C          62.0915   88.7359   11.1786 C.ar    1  UNL1        0.2685
      9 O          61.8352   89.6987   10.7278 O.2     1  UNL1       -0.2665
     10 C          62.9892   88.5015   12.3573 C.ar    1  UNL1        0.0897
     11 C          63.6426   89.6633   13.0452 C.ar    1  UNL1        0.0030
     12 C          60.5405   87.8086    9.3120 C.ar    1  UNL1        0.0735
     13 C          59.5926   86.7350    8.8659 C.ar    1  UNL1        0.0544
     14 C          58.6949   86.9695    7.6872 C.ar    1  UNL1        0.1374
     15 O          57.7471   85.8959    7.2411 O.3     1  UNL1       -0.5054
     16 C          58.7451   88.2775    6.9547 C.ar    1  UNL1        0.0663
     17 C          59.6930   89.3511    7.4008 C.ar    1  UNL1        0.1446
     18 F          59.7432   90.6590    6.6683 F       1  UNL1       -0.2040
     19 C          60.5907   89.1166    8.5795 C.ar    1  UNL1        0.0475
     20 H          57.7157   85.0789    7.6987 H       1  UNL1        0.2922
     21 C          68.6707   92.5038   14.9196 C.3     1  UNL1        0.0311
     22 C          67.2588   92.1282   15.2597 C.ar    1  UNL1       -0.0210
     23 C          66.5004   92.9143   16.2877 C.ar    1  UNL1        0.0071
     24 C          65.0886   92.5386   16.6278 C.ar    1  UNL1        0.0574
     25 CL         64.3302   93.3247   17.6558 Cl      1  UNL1       -0.0823
     26 C          64.4352   91.3768   15.9398 C.ar    1  UNL1        0.0114
     27 C          65.1936   90.5907   14.9118 C.ar    1  UNL1        0.0018
     28 C          66.6055   90.9664   14.5718 C.ar    1  UNL1       -0.0042
     29 C          63.3983   91.0596   12.5545 C.3     1  UNL1        0.0995
     30 N          64.2624   91.6362   11.4725 N.3     1  UNL1       -0.2666
     31 C          64.1038   91.5603   10.3932 C.3     1  UNL1        0.0899
     32 C          65.4941   92.4136   11.8306 C.3     1  UNL1        0.0882
     33 C          66.4626   92.8196   10.7596 C.3     1  UNL1        0.0702
     34 C          67.7344   92.1077   10.4049 C.3     1  UNL1        0.0186
     35 C          68.3872   92.8569    9.2813 C.3     1  UNL1        0.0185
     36 C          67.5189   94.0319    8.9415 C.3     1  UNL1        0.0686
     37 N          66.3295   94.0088    9.8551 N.3     1  UNL1       -0.2974
     38 H          65.4730   93.9322    9.3065 H       1  UNL1        0.1232
@<TRIPOS>BOND
     1    21    22    1
     2    22    23   ar
     3    23    24   ar
     4    24    25    1
     5    24    26   ar
     6    26    27   ar
     7    27     1    1
     8     1     2   ar
     9     2     3   ar
    10     3     4   ar
    11     4     5   ar
    12     5     6   ar
    13     6     7   ar
    14     7    12    1
    15    12    13   ar
    16    13    14   ar
    17    14    15    1
    18    14    16   ar
    19    16    17   ar
    20    17    18    1
    21    17    19   ar
    22     7     8   ar
    23     8     9    2
    24     8    10   ar
    25    10    11   ar
    26    11    29    1
    27    29    30    1
    28    30    31    1
    29    30    32    1
    30    33    32    1
    31    33    34    1
    32    34    35    1
    33    35    36    1
    34    36    37    1
    35    27    28   ar
    36    28    22   ar
    37    11     1   ar
    38    37    33    1
    39    10     4   ar
    40    19    12   ar
    41    15    20    1
    42    37    38    1
@<TRIPOS>MOLECULE
*****
 38 42 0 0 0
SMALL
GASTEIGER

@<TRIPOS>ATOM
      1 C          62.2537   85.8843   10.7940 C.ar    1  UNL1        0.0168
      2 C          62.3936   84.6538   11.6404 C.ar    1  UNL1        0.1003
      3 N          63.0098   84.7481   13.0047 N.ar    1  UNL1       -0.2249
      4 C          63.4861   86.0728   13.5226 C.ar    1  UNL1        0.1683
      5 N          64.1023   86.1670   14.8870 N.ar    1  UNL1       -0.2058
      6 C          64.5786   87.4917   15.4050 C.ar    1  UNL1        0.1865
      7 N          64.4387   88.7222   14.5586 N.ar    1  UNL1       -0.2565
      8 C          63.8225   88.6280   13.1943 C.ar    1  UNL1        0.2685
      9 O          63.7774   89.5911   12.6784 O.2     1  UNL1       -0.2665
     10 C          63.3462   87.3033   12.6763 C.ar    1  UNL1        0.0897
     11 C          62.7300   87.2090   11.3120 C.ar    1  UNL1        0.0030
     12 C          64.9150   90.0469   15.0765 C.ar    1  UNL1        0.0735
     13 C          63.9855   90.9228   15.8632 C.ar    1  UNL1        0.0544
     14 C          64.4618   92.2475   16.3812 C.ar    1  UNL1        0.1374
     15 O          63.5323   93.1234   17.1678 O.3     1  UNL1       -0.5054
     16 C          65.8677   92.6963   16.1125 C.ar    1  UNL1        0.0663
     17 C          66.7972   91.8204   15.3258 C.ar    1  UNL1        0.1446
     18 F          68.2030   92.2693   15.0572 F       1  UNL1       -0.2040
     19 C          66.3208   90.4957   14.8079 C.ar    1  UNL1        0.0475
     20 H          62.6541   92.8430   17.3356 H       1  UNL1        0.2922
     21 C          62.4771   84.2812    5.8564 C.3     1  UNL1        0.0311
     22 C          61.7492   84.9885    6.9609 C.ar    1  UNL1       -0.0210
     23 C          60.4051   85.6017    6.7009 C.ar    1  UNL1        0.0071
     24 C          59.6772   86.3091    7.8054 C.ar    1  UNL1        0.0574
     25 CL         58.3332   86.9222    7.5455 Cl      1  UNL1       -0.0823
     26 C          60.2935   86.4033    9.1698 C.ar    1  UNL1        0.0114
     27 C          61.6375   85.7901    9.4297 C.ar    1  UNL1        0.0018
     28 C          62.3654   85.0828    8.3252 C.ar    1  UNL1       -0.0042
     29 C          62.5901   88.4395   10.4656 C.3     1  UNL1        0.0995
     30 N          61.5451   89.4632   10.7973 N.3     1  UNL1       -0.2666
     31 C          60.5620   89.2804   11.2401 C.3     1  UNL1        0.0899
     32 C          61.8028   90.9148   10.5212 C.3     1  UNL1        0.0882
     33 C          63.1171   91.5290   10.9025 C.3     1  UNL1        0.0702
     34 C          64.2968   91.7207    9.9961 C.3     1  UNL1        0.0186
     35 C          65.3912   92.3695   10.7906 C.3     1  UNL1        0.0185
     36 C          64.8879   92.5788   12.1881 C.3     1  UNL1        0.0686
     37 N          63.4824   92.0594   12.2572 N.3     1  UNL1       -0.2974
     38 H          62.8469   92.8139   12.5165 H       1  UNL1        0.1232
@<TRIPOS>BOND
     1    21    22    1
     2    22    23   ar
     3    23    24   ar
     4    24    25    1
     5    24    26   ar
     6    26    27   ar
     7    27     1    1
     8     1     2   ar
     9     2     3   ar
    10     3     4   ar
    11     4     5   ar
    12     5     6   ar
    13     6     7   ar
    14     7    12    1
    15    12    13   ar
    16    13    14   ar
    17    14    15    1
    18    14    16   ar
    19    16    17   ar
    20    17    18    1
    21    17    19   ar
    22     7     8   ar
    23     8     9    2
    24     8    10   ar
    25    10    11   ar
    26    11    29    1
    27    29    30    1
    28    30    31    1
    29    30    32    1
    30    33    32    1
    31    33    34    1
    32    34    35    1
    33    35    36    1
    34    36    37    1
    35    27    28   ar
    36    28    22   ar
    37    11     1   ar
    38    37    33    1
    39    10     4   ar
    40    19    12   ar
    41    15    20    1
    42    37    38    1
@<TRIPOS>MOLECULE
*****
 38 42 0 0 0
SMALL
GASTEIGER

@<TRIPOS>ATOM
      1 C          64.5370   89.4021   14.2150 C.ar    1  UNL1        0.0168
      2 C          64.7961   88.0105   14.7111 C.ar    1  UNL1        0.1003
      3 N          64.1526   86.8394   14.0296 N.ar    1  UNL1       -0.2249
      4 C          63.2501   87.0600   12.8520 C.ar    1  UNL1        0.1683
      5 N          62.6066   85.8888   12.1706 N.ar    1  UNL1       -0.2058
      6 C          61.7040   86.1094   10.9930 C.ar    1  UNL1        0.1865
      7 N          61.4450   87.5011   10.4968 N.ar    1  UNL1       -0.2565
      8 C          62.0884   88.6722   11.1783 C.ar    1  UNL1        0.2685
      9 O          61.8217   89.6304   10.7240 O.2     1  UNL1       -0.2665
     10 C          62.9910   88.4516   12.3559 C.ar    1  UNL1        0.0897
     11 C          63.6345   89.6227   13.0374 C.ar    1  UNL1        0.0030
     12 C          60.5424   87.7216    9.3192 C.ar    1  UNL1        0.0735
     13 C          60.6258   89.0004    8.5395 C.ar    1  UNL1        0.0544
     14 C          59.7232   89.2210    7.3619 C.ar    1  UNL1        0.1374
     15 O          59.8066   90.4996    6.5822 O.3     1  UNL1       -0.5054
     16 C          58.7373   88.1628    6.9640 C.ar    1  UNL1        0.0663
     17 C          58.6540   86.8841    7.7438 C.ar    1  UNL1        0.1446
     18 F          57.6681   85.8260    7.3459 F       1  UNL1       -0.2040
     19 C          59.5565   86.6635    8.9214 C.ar    1  UNL1        0.0475
     20 H          60.4224   91.1606    6.8307 H       1  UNL1        0.2922
     21 C          68.6380   92.5215   14.8869 C.3     1  UNL1        0.0311
     22 C          67.2310   92.1330   15.2324 C.ar    1  UNL1       -0.0210
     23 C          66.4675   92.9156   16.2594 C.ar    1  UNL1        0.0071
     24 C          65.0605   92.5270   16.6050 C.ar    1  UNL1        0.0574
     25 CL         64.2970   93.3095   17.6319 Cl      1  UNL1       -0.0823
     26 C          64.4170   91.3558   15.9235 C.ar    1  UNL1        0.0114
     27 C          65.1805   90.5733   14.8965 C.ar    1  UNL1        0.0018
     28 C          66.5875   90.9619   14.5510 C.ar    1  UNL1       -0.0042
     29 C          63.3754   91.0144   12.5413 C.3     1  UNL1        0.0995
     30 N          64.2405   91.6001   11.4649 N.3     1  UNL1       -0.2666
     31 C          64.0995   91.5080   10.3844 C.3     1  UNL1        0.0899
     32 C          65.4472   92.4121   11.8314 C.3     1  UNL1        0.0882
     33 C          66.4181   92.8343   10.7687 C.3     1  UNL1        0.0702
     34 C          67.7035   92.1425   10.4237 C.3     1  UNL1        0.0186
     35 C          68.3539   92.9031    9.3063 C.3     1  UNL1        0.0185
     36 C          67.4703   94.0649    8.9606 C.3     1  UNL1        0.0686
     37 N          66.2739   94.0224    9.8645 N.3     1  UNL1       -0.2974
     38 H          65.4233   93.9332    9.3088 H       1  UNL1        0.1232
@<TRIPOS>BOND
     1    21    22    1
     2    22    23   ar
     3    23    24   ar
     4    24    25    1
     5    24    26   ar
     6    26    27   ar
     7    27     1    1
     8     1     2   ar
     9     2     3   ar
    10     3     4   ar
    11     4     5   ar
    12     5     6   ar
    13     6     7   ar
    14     7    12    1
    15    12    13   ar
    16    13    14   ar
    17    14    15    1
    18    14    16   ar
    19    16    17   ar
    20    17    18    1
    21    17    19   ar
    22     7     8   ar
    23     8     9    2
    24     8    10   ar
    25    10    11   ar
    26    11    29    1
    27    29    30    1
    28    30    31    1
    29    30    32    1
    30    33    32    1
    31    33    34    1
    32    34    35    1
    33    35    36    1
    34    36    37    1
    35    27    28   ar
    36    28    22   ar
    37    11     1   ar
    38    37    33    1
    39    10     4   ar
    40    19    12   ar
    41    15    20    1
    42    37    38    1
@<TRIPOS>MOLECULE
*****
 38 42 0 0 0
SMALL
GASTEIGER

@<TRIPOS>ATOM
      1 C          62.8588   84.9045   15.2544 C.ar    1  UNL1        0.0168
      2 C          62.3878   85.1066   16.6641 C.ar    1  UNL1        0.1003
      3 N          62.4886   86.4606   17.3016 N.ar    1  UNL1       -0.2249
      4 C          63.0603   87.6125   16.5294 C.ar    1  UNL1        0.1683
      5 N          63.1610   88.9666   17.1670 N.ar    1  UNL1       -0.2058
      6 C          63.7328   90.1185   16.3948 C.ar    1  UNL1        0.1865
      7 N          64.2038   89.9163   14.9851 N.ar    1  UNL1       -0.2565
      8 C          64.1030   88.5623   14.3476 C.ar    1  UNL1        0.2685
      9 O          64.4783   88.5446   13.3206 O.2     1  UNL1       -0.2665
     10 C          63.5313   87.4104   15.1197 C.ar    1  UNL1        0.0897
     11 C          63.4305   86.0564   14.4822 C.ar    1  UNL1        0.0030
     12 C          64.7755   91.0682   14.2129 C.ar    1  UNL1        0.0735
     13 C          64.3812   91.2809   12.7813 C.ar    1  UNL1        0.0544
     14 C          64.9529   92.4327   12.0091 C.ar    1  UNL1        0.1374
     15 O          64.5587   92.6454   10.5776 O.3     1  UNL1       -0.5054
     16 C          65.9190   93.3720   12.6685 C.ar    1  UNL1        0.0663
     17 C          66.3132   93.1593   14.1000 C.ar    1  UNL1        0.1446
     18 F          67.2792   94.0985   14.7593 F       1  UNL1       -0.2040
     19 C          65.7415   92.0074   14.8722 C.ar    1  UNL1        0.0475
     20 H          63.9553   92.0588   10.1657 H       1  UNL1        0.2922
     21 C          64.9728   81.0963   12.4208 C.3     1  UNL1        0.0311
     22 C          63.8151   81.6464   13.2001 C.ar    1  UNL1       -0.0210
     23 C          62.5566   80.8424   13.3417 C.ar    1  UNL1        0.0071
     24 C          61.3989   81.3924   14.1209 C.ar    1  UNL1        0.0574
     25 CL         60.1406   80.5885   14.2626 Cl      1  UNL1       -0.0823
     26 C          61.4997   82.7465   14.7585 C.ar    1  UNL1        0.0114
     27 C          62.7581   83.5504   14.6168 C.ar    1  UNL1        0.0018
     28 C          63.9158   83.0004   13.8376 C.ar    1  UNL1       -0.0042
     29 C          63.9015   85.8542   13.0725 C.3     1  UNL1        0.0995
     30 N          62.9059   85.7723   11.9536 N.3     1  UNL1       -0.2666
     31 C          62.5271   84.8651   11.4748 C.3     1  UNL1        0.0899
     32 C          62.3217   87.0274   11.3761 C.3     1  UNL1        0.0882
     33 C          61.4256   86.9542   10.1754 C.3     1  UNL1        0.0702
     34 C          60.0879   87.6175   10.0319 C.3     1  UNL1        0.0186
     35 C          59.5453   87.2782    8.6753 C.3     1  UNL1        0.0185
     36 C          60.5478   86.4052    7.9803 C.3     1  UNL1        0.0686
     37 N          61.7098   86.2050    8.9074 N.3     1  UNL1       -0.2974
     38 H          62.5620   86.5639    8.4769 H       1  UNL1        0.1232
@<TRIPOS>BOND
     1    21    22    1
     2    22    23   ar
     3    23    24   ar
     4    24    25    1
     5    24    26   ar
     6    26    27   ar
     7    27     1    1
     8     1     2   ar
     9     2     3   ar
    10     3     4   ar
    11     4     5   ar
    12     5     6   ar
    13     6     7   ar
    14     7    12    1
    15    12    13   ar
    16    13    14   ar
    17    14    15    1
    18    14    16   ar
    19    16    17   ar
    20    17    18    1
    21    17    19   ar
    22     7     8   ar
    23     8     9    2
    24     8    10   ar
    25    10    11   ar
    26    11    29    1
    27    29    30    1
    28    30    31    1
    29    30    32    1
    30    33    32    1
    31    33    34    1
    32    34    35    1
    33    35    36    1
    34    36    37    1
    35    27    28   ar
    36    28    22   ar
    37    11     1   ar
    38    37    33    1
    39    10     4   ar
    40    19    12   ar
    41    15    20    1
    42    37    38    1
@<TRIPOS>MOLECULE
*****
 38 42 0 0 0
SMALL
GASTEIGER

@<TRIPOS>ATOM
      1 C          62.1639   86.1102   10.8382 C.ar    1  UNL1        0.0168
      2 C          62.1856   84.9355   11.7707 C.ar    1  UNL1        0.1003
      3 N          62.7611   85.0819   13.1481 N.ar    1  UNL1       -0.2249
      4 C          63.3151   86.4029   13.5930 C.ar    1  UNL1        0.1683
      5 N          63.8907   86.5493   14.9705 N.ar    1  UNL1       -0.2058
      6 C          64.4447   87.8703   15.4153 C.ar    1  UNL1        0.1865
      7 N          64.4231   89.0451   14.4828 N.ar    1  UNL1       -0.2565
      8 C          63.8475   88.8987   13.1054 C.ar    1  UNL1        0.2685
      9 O          63.8898   89.8239   12.5241 O.2     1  UNL1       -0.2665
     10 C          63.2935   87.5776   12.6605 C.ar    1  UNL1        0.0897
     11 C          62.7179   87.4312   11.2831 C.ar    1  UNL1        0.0030
     12 C          64.9770   90.3661   14.9276 C.ar    1  UNL1        0.0735
     13 C          64.2484   91.1760   15.9588 C.ar    1  UNL1        0.0544
     14 C          64.8023   92.4971   16.4036 C.ar    1  UNL1        0.1374
     15 O          64.0737   93.3070   17.4347 O.3     1  UNL1       -0.5054
     16 C          66.0850   93.0082   15.8174 C.ar    1  UNL1        0.0663
     17 C          66.8136   92.1983   14.7863 C.ar    1  UNL1        0.1446
     18 F          68.0961   92.7095   14.2001 F       1  UNL1       -0.2040
     19 C          66.2596   90.8773   14.3414 C.ar    1  UNL1        0.0475
     20 H          63.2725   92.9877   17.8009 H       1  UNL1        0.2922
     21 C          62.5874   84.4305    5.9393 C.3     1  UNL1        0.0311
     22 C          61.8001   85.1240    7.0113 C.ar    1  UNL1       -0.0210
     23 C          60.4372   85.6711    6.7059 C.ar    1  UNL1        0.0071
     24 C          59.6499   86.3646    7.7779 C.ar    1  UNL1        0.0574
     25 CL         58.2871   86.9118    7.4725 Cl      1  UNL1       -0.0823
     26 C          60.2255   86.5110    9.1554 C.ar    1  UNL1        0.0114
     27 C          61.5883   85.9638    9.4608 C.ar    1  UNL1        0.0018
     28 C          62.3756   85.2703    8.3887 C.ar    1  UNL1       -0.0042
     29 C          62.6963   88.6060   10.3505 C.3     1  UNL1        0.0995
     30 N          61.4517   89.4319   10.2134 N.3     1  UNL1       -0.2666
     31 C          60.8141   89.5196    9.3294 C.3     1  UNL1        0.0899
     32 C          60.9655   90.2534   11.3705 C.3     1  UNL1        0.0882
     33 C          59.9776   89.6738   12.3391 C.3     1  UNL1        0.0702
     34 C          58.6194   89.1365   11.9978 C.3     1  UNL1        0.0186
     35 C          57.9768   88.6605   13.2669 C.3     1  UNL1        0.0185
     36 C          58.9379   88.9036   14.3925 C.3     1  UNL1        0.0686
     37 N          60.1744   89.5299   13.8191 N.3     1  UNL1       -0.2974
     38 H          60.9818   88.9348   14.0047 H       1  UNL1        0.1232
@<TRIPOS>BOND
     1    21    22    1
     2    22    23   ar
     3    23    24   ar
     4    24    25    1
     5    24    26   ar
     6    26    27   ar
     7    27     1    1
     8     1     2   ar
     9     2     3   ar
    10     3     4   ar
    11     4     5   ar
    12     5     6   ar
    13     6     7   ar
    14     7    12    1
    15    12    13   ar
    16    13    14   ar
    17    14    15    1
    18    14    16   ar
    19    16    17   ar
    20    17    18    1
    21    17    19   ar
    22     7     8   ar
    23     8     9    2
    24     8    10   ar
    25    10    11   ar
    26    11    29    1
    27    29    30    1
    28    30    31    1
    29    30    32    1
    30    33    32    1
    31    33    34    1
    32    34    35    1
    33    35    36    1
    34    36    37    1
    35    27    28   ar
    36    28    22   ar
    37    11     1   ar
    38    37    33    1
    39    10     4   ar
    40    19    12   ar
    41    15    20    1
    42    37    38    1
@<TRIPOS>MOLECULE
*****
 38 42 0 0 0
SMALL
GASTEIGER

@<TRIPOS>ATOM
      1 C          62.3626   94.0996   -1.9694 C.ar    1  UNL1        0.0168
      2 C          63.8176   94.2114   -1.6227 C.ar    1  UNL1        0.1003
      3 N          64.2954   93.8180   -0.2564 N.ar    1  UNL1       -0.2249
      4 C          63.3182   93.3128    0.7633 C.ar    1  UNL1        0.1683
      5 N          63.7960   92.9194    2.1297 N.ar    1  UNL1       -0.2058
      6 C          62.8188   92.4142    3.1494 C.ar    1  UNL1        0.1865
      7 N          61.3636   92.3025    2.8027 N.ar    1  UNL1       -0.2565
      8 C          60.8858   92.6959    1.4363 C.ar    1  UNL1        0.2685
      9 O          59.8073   92.5690    1.3079 O.2     1  UNL1       -0.2665
     10 C          61.8631   93.2011    0.4166 C.ar    1  UNL1        0.0897
     11 C          61.3853   93.5945   -0.9497 C.ar    1  UNL1        0.0030
     12 C          60.3864   91.7974    3.8223 C.ar    1  UNL1        0.0735
     13 C          58.9985   92.3640    3.8762 C.ar    1  UNL1        0.0544
     14 C          58.0212   91.8588    4.8958 C.ar    1  UNL1        0.1374
     15 O          56.6334   92.4253    4.9497 O.3     1  UNL1       -0.5054
     16 C          58.4318   90.7870    5.8617 C.ar    1  UNL1        0.0663
     17 C          59.8196   90.2205    5.8079 C.ar    1  UNL1        0.1446
     18 F          60.2302   89.1488    6.7737 F       1  UNL1       -0.2040
     19 C          60.7969   90.7257    4.7882 C.ar    1  UNL1        0.0475
     20 H          56.3769   93.0948    4.3464 H       1  UNL1        0.2922
     21 C          59.1622   96.8549   -4.9969 C.3     1  UNL1        0.0311
     22 C          60.2845   95.8707   -4.8495 C.ar    1  UNL1       -0.0210
     23 C          60.9289   95.2799   -6.0684 C.ar    1  UNL1        0.0071
     24 C          62.0512   94.2957   -5.9210 C.ar    1  UNL1        0.0574
     25 CL         62.6956   93.7049   -7.1398 Cl      1  UNL1       -0.0823
     26 C          62.5291   93.9023   -4.5546 C.ar    1  UNL1        0.0114
     27 C          61.8847   94.4931   -3.3357 C.ar    1  UNL1        0.0018
     28 C          60.7624   95.4773   -3.4832 C.ar    1  UNL1       -0.0042
     29 C          59.9301   93.4828   -1.2964 C.3     1  UNL1        0.0995
     30 N          58.9882   94.5965   -0.9467 N.3     1  UNL1       -0.2666
     31 C          59.2022   95.4674   -0.3210 C.3     1  UNL1        0.0899
     32 C          57.5842   94.5849   -1.4746 C.3     1  UNL1        0.0882
     33 C          57.0581   93.3701   -2.1798 C.3     1  UNL1        0.0702
     34 C          57.2752   93.0254   -3.6234 C.3     1  UNL1        0.0186
     35 C          56.5737   91.7288   -3.9010 C.3     1  UNL1        0.0185
     36 C          55.9231   91.2723   -2.6289 C.3     1  UNL1        0.0686
     37 N          56.2224   92.2866   -1.5651 N.3     1  UNL1       -0.2974
     38 H          56.7345   91.8459   -0.8010 H       1  UNL1        0.1232
@<TRIPOS>BOND
     1    21    22    1
     2    22    23   ar
     3    23    24   ar
     4    24    25    1
     5    24    26   ar
     6    26    27   ar
     7    27     1    1
     8     1     2   ar
     9     2     3   ar
    10     3     4   ar
    11     4     5   ar
    12     5     6   ar
    13     6     7   ar
    14     7    12    1
    15    12    13   ar
    16    13    14   ar
    17    14    15    1
    18    14    16   ar
    19    16    17   ar
    20    17    18    1
    21    17    19   ar
    22     7     8   ar
    23     8     9    2
    24     8    10   ar
    25    10    11   ar
    26    11    29    1
    27    29    30    1
    28    30    31    1
    29    30    32    1
    30    33    32    1
    31    33    34    1
    32    34    35    1
    33    35    36    1
    34    36    37    1
    35    27    28   ar
    36    28    22   ar
    37    11     1   ar
    38    37    33    1
    39    10     4   ar
    40    19    12   ar
    41    15    20    1
    42    37    38    1
@<TRIPOS>MOLECULE
*****
 38 42 0 0 0
SMALL
GASTEIGER

@<TRIPOS>ATOM
      1 C          62.6025   93.9448   -1.6896 C.ar    1  UNL1        0.0168
      2 C          64.0361   94.0173   -1.2543 C.ar    1  UNL1        0.1003
      3 N          64.4194   93.6059    0.1362 N.ar    1  UNL1       -0.2249
      4 C          63.3691   93.1219    1.0916 C.ar    1  UNL1        0.1683
      5 N          63.7524   92.7105    2.4822 N.ar    1  UNL1       -0.2058
      6 C          62.7021   92.2265    3.4376 C.ar    1  UNL1        0.1865
      7 N          61.2685   92.1541    3.0023 N.ar    1  UNL1       -0.2565
      8 C          60.8852   92.5655    1.6117 C.ar    1  UNL1        0.2685
      9 O          59.8136   92.4671    1.4171 O.2     1  UNL1       -0.2665
     10 C          61.9355   93.0494    0.6563 C.ar    1  UNL1        0.0897
     11 C          61.5522   93.4609   -0.7342 C.ar    1  UNL1        0.0030
     12 C          60.2182   91.6701    3.9576 C.ar    1  UNL1        0.0735
     13 C          60.5704   90.6635    5.0125 C.ar    1  UNL1        0.0544
     14 C          59.5201   90.1796    5.9679 C.ar    1  UNL1        0.1374
     15 O          59.8722   89.1731    7.0228 O.3     1  UNL1       -0.5054
     16 C          58.1176   90.7023    5.8683 C.ar    1  UNL1        0.0663
     17 C          57.7654   91.7088    4.8134 C.ar    1  UNL1        0.1446
     18 F          56.3630   92.2314    4.7139 F       1  UNL1       -0.2040
     19 C          58.8157   92.1928    3.8581 C.ar    1  UNL1        0.0475
     20 H          60.7483   88.8466    7.0849 H       1  UNL1        0.2922
     21 C          63.1822   93.5023   -6.8343 C.3     1  UNL1        0.0311
     22 C          62.5090   94.1350   -5.6526 C.ar    1  UNL1       -0.0210
     23 C          61.4524   95.1791   -5.8614 C.ar    1  UNL1        0.0071
     24 C          60.7792   95.8118   -4.6797 C.ar    1  UNL1        0.0574
     25 CL         59.7227   96.8558   -4.8885 Cl      1  UNL1       -0.0823
     26 C          61.1626   95.4003   -3.2890 C.ar    1  UNL1        0.0114
     27 C          62.2191   94.3563   -3.0802 C.ar    1  UNL1        0.0018
     28 C          62.8923   93.7236   -4.2620 C.ar    1  UNL1       -0.0042
     29 C          60.1185   93.3884   -1.1695 C.3     1  UNL1        0.0995
     30 N          59.1560   94.4647   -0.7632 N.3     1  UNL1       -0.2666
     31 C          59.4034   95.4682   -0.4058 C.3     1  UNL1        0.0899
     32 C          57.6787   94.2128   -0.8264 C.3     1  UNL1        0.0882
     33 C          57.1278   93.2254   -1.8121 C.3     1  UNL1        0.0702
     34 C          57.0743   93.4018   -3.3007 C.3     1  UNL1        0.0186
     35 C          56.4470   92.1737   -3.8908 C.3     1  UNL1        0.0185
     36 C          56.1129   91.2382   -2.7669 C.3     1  UNL1        0.0686
     37 N          56.5336   91.8882   -1.4822 N.3     1  UNL1       -0.2974
     38 H          57.2277   91.3076   -1.0116 H       1  UNL1        0.1232
@<TRIPOS>BOND
     1    21    22    1
     2    22    23   ar
     3    23    24   ar
     4    24    25    1
     5    24    26   ar
     6    26    27   ar
     7    27     1    1
     8     1     2   ar
     9     2     3   ar
    10     3     4   ar
    11     4     5   ar
    12     5     6   ar
    13     6     7   ar
    14     7    12    1
    15    12    13   ar
    16    13    14   ar
    17    14    15    1
    18    14    16   ar
    19    16    17   ar
    20    17    18    1
    21    17    19   ar
    22     7     8   ar
    23     8     9    2
    24     8    10   ar
    25    10    11   ar
    26    11    29    1
    27    29    30    1
    28    30    31    1
    29    30    32    1
    30    33    32    1
    31    33    34    1
    32    34    35    1
    33    35    36    1
    34    36    37    1
    35    27    28   ar
    36    28    22   ar
    37    11     1   ar
    38    37    33    1
    39    10     4   ar
    40    19    12   ar
    41    15    20    1
    42    37    38    1
