@<TRIPOS>MOLECULE
*****
 45 49 0 0 0
SMALL
GASTEIGER

@<TRIPOS>ATOM
      1 N          63.7053   90.6517   12.0874 N.am    1  UNL1       -0.2569
      2 C          64.3480   91.8790   11.5124 C.2     1  UNL1        0.2455
      3 O          63.9157   92.3938   10.1714 O.2     1  UNL1       -0.2730
      4 C          65.4230   92.5916   12.2783 C.3     1  UNL1        0.1555
      5 N          65.8553   92.0768   13.6192 N.3     1  UNL1       -0.2884
      6 C          65.2126   90.8495   14.1942 C.3     1  UNL1        0.0902
      7 C          64.1376   90.1370   13.4283 C.3     1  UNL1        0.1066
      8 H          65.7005   92.8312   14.2881 H       1  UNL1        0.1237
      9 C          60.4803   88.5141    9.7896 C.ar    1  UNL1        0.1386
     10 C          61.9061   88.0620    9.6778 C.ar    1  UNL1        0.0382
     11 C          62.9811   88.7746   10.4437 C.ar    1  UNL1        0.0180
     12 C          62.6303   89.9392   11.3214 C.ar    1  UNL1        0.0541
     13 C          61.2045   90.3913   11.4333 C.ar    1  UNL1        0.0180
     14 C          60.1295   89.6787   10.6673 C.ar    1  UNL1        0.0382
     15 O          59.4053   87.8016    9.0237 O.3     1  UNL1       -0.4754
     16 C          59.1503   88.1512    7.5875 C.3     1  UNL1        0.2080
     17 C          59.6605   89.4465    7.0289 C.3     1  UNL1        0.0794
     18 C          58.9426   90.1062    5.8889 C.3     1  UNL1        0.1465
     19 O          59.1807   91.5571    5.5918 O.3     1  UNL1       -0.3488
     20 C          59.2808   92.0249    4.1702 C.3     1  UNL1        0.1716
     21 C          60.8369   93.1389    2.4131 C.ar    1  UNL1        0.1370
     22 C          62.1795   93.2535    1.7540 C.ar    1  UNL1        0.0367
     23 C          63.3085   92.3688    2.1929 C.ar    1  UNL1        0.0031
     24 C          63.0949   91.3695    3.2910 C.ar    1  UNL1       -0.0000
     25 C          61.7524   91.2548    3.9501 C.ar    1  UNL1        0.0012
     26 C          60.6234   92.1396    3.5111 C.ar    1  UNL1        0.0413
     27 C          59.2983   94.0567    0.5315 C.3     1  UNL1        0.2525
     28 O          59.7079   94.0236    1.9741 O.3     1  UNL1       -0.4717
     29 C          63.4949   88.9096   14.0033 C.3     1  UNL1        0.0837
     30 S          64.3371   87.8688   14.6795 S.3     1  UNL1       -0.1118
     31 C          63.8447   86.4555   14.7811 C.ar    1  UNL1        0.0267
     32 C          63.3466   85.9274   16.0937 C.ar    1  UNL1        0.0093
     33 C          62.8542   84.5142   16.1954 C.ar    1  UNL1        0.0387
     34 C          62.8599   83.6291   14.9843 C.ar    1  UNL1        0.1528
     35 C          63.3579   84.1572   13.6717 C.ar    1  UNL1        0.0889
     36 C          63.8503   85.5704   13.5701 C.ar    1  UNL1        0.0241
     37 N          63.3636   83.2721   12.4607 N.am    1  UNL1       -0.2474
     38 C          62.8712   81.8589   12.5623 C.2     1  UNL1        0.2743
     39 O          62.8768   80.9738   11.3513 O.2     1  UNL1       -0.2705
     40 C          62.3731   81.3307   13.8750 C.3     1  UNL1        0.2900
     41 O          62.3675   82.2158   15.0860 O.3     1  UNL1       -0.4643
     42 C          63.8616   83.8002   11.1481 C.3     1  UNL1        0.1399
     43 C          62.9364   84.5629   10.2468 C.2     1  UNL1        0.0708
     44 O          63.2732   84.7306    8.7948 O.co2   1  UNL1       -0.5474
     45 O          61.6745   85.1580   10.7977 O.co2   1  UNL1       -0.5474
@<TRIPOS>UNITY_ATOM_ATTR
44 1
charge -1
@<TRIPOS>BOND
     1    27    28    1
     2    28    21    1
     3    21    22   ar
     4    22    23   ar
     5    23    24   ar
     6    24    25   ar
     7    25    26   ar
     8    26    20    1
     9    20    19    1
    10    19    18    1
    11    18    17    1
    12    17    16    1
    13    16    15    1
    14    15     9    1
    15     9    10   ar
    16    10    11   ar
    17    11    12   ar
    18    12     1    1
    19     1     2   am
    20     2     3    2
    21     2     4    1
    22     4     5    1
    23     5     6    1
    24     6     7    1
    25     7    29    1
    26    29    30    1
    27    30    31    1
    28    31    32   ar
    29    32    33   ar
    30    33    34   ar
    31    34    35   ar
    32    35    36   ar
    33    35    37    1
    34    37    42    1
    35    42    43    1
    36    43    44   ar
    37    43    45   ar
    38    37    38   am
    39    38    39    2
    40    38    40    1
    41    40    41    1
    42    12    13   ar
    43    13    14   ar
    44    26    21   ar
    45    14     9   ar
    46     7     1    1
    47    36    31   ar
    48    41    34    1
    49     5     8    1
@<TRIPOS>MOLECULE
*****
 45 49 0 0 0
SMALL
GASTEIGER

@<TRIPOS>ATOM
      1 N          62.8403   86.4710   12.2534 N.am    1  UNL1       -0.2569
      2 C          62.9893   85.0531   12.7193 C.2     1  UNL1        0.2455
      3 O          62.3158   83.9424   11.9691 O.2     1  UNL1       -0.2730
      4 C          63.8118   84.7457   13.9355 C.3     1  UNL1        0.1555
      5 N          64.4853   85.8564   14.6858 N.3     1  UNL1       -0.2884
      6 C          64.3363   87.2743   14.2198 C.3     1  UNL1        0.0902
      7 C          63.5138   87.5817   13.0036 C.3     1  UNL1        0.1066
      8 H          65.4840   85.6494   14.6843 H       1  UNL1        0.1237
      9 C          60.3730   87.3930    8.6048 C.ar    1  UNL1        0.1386
     10 C          59.9187   87.8615    9.9554 C.ar    1  UNL1        0.0382
     11 C          60.7412   87.5542   11.1716 C.ar    1  UNL1        0.0180
     12 C          62.0179   86.7784   11.0372 C.ar    1  UNL1        0.0541
     13 C          62.4721   86.3099    9.6866 C.ar    1  UNL1        0.0180
     14 C          61.6497   86.6172    8.4704 C.ar    1  UNL1        0.0382
     15 O          59.5505   87.7004    7.3887 O.3     1  UNL1       -0.4754
     16 C          59.0063   89.0826    7.1809 C.3     1  UNL1        0.2080
     17 C          59.3467   89.8430    5.9335 C.3     1  UNL1        0.0794
     18 C          58.5012   91.0079    5.5111 C.3     1  UNL1        0.1465
     19 O          58.8058   91.7311    4.2327 O.3     1  UNL1       -0.3488
     20 C          60.1746   92.2984    3.9998 C.3     1  UNL1        0.1716
     21 C          62.0344   92.6901    2.2284 C.ar    1  UNL1        0.1370
     22 C          62.4468   93.1119    0.8493 C.ar    1  UNL1        0.0367
     23 C          61.4116   93.5638   -0.1377 C.ar    1  UNL1        0.0031
     24 C          59.9640   93.5939    0.2544 C.ar    1  UNL1       -0.0000
     25 C          59.5517   93.1721    1.6336 C.ar    1  UNL1        0.0012
     26 C          60.5870   92.7202    2.6206 C.ar    1  UNL1        0.0413
     27 C          63.4850   90.7976    3.2601 C.3     1  UNL1        0.2525
     28 O          63.0697   92.2382    3.2154 O.3     1  UNL1       -0.4717
     29 C          63.3648   88.9997   12.5377 C.3     1  UNL1        0.0837
     30 S          62.9571   90.0689   13.5075 S.3     1  UNL1       -0.1118
     31 C          63.9988   90.7902   14.3104 C.ar    1  UNL1        0.0267
     32 C          63.6746   91.2831   15.6894 C.ar    1  UNL1        0.0093
     33 C          64.7163   92.0044   16.4923 C.ar    1  UNL1        0.0387
     34 C          66.0822   92.2326   15.9161 C.ar    1  UNL1        0.1528
     35 C          66.4065   91.7397   14.5370 C.ar    1  UNL1        0.0889
     36 C          65.3648   91.0184   13.7342 C.ar    1  UNL1        0.0241
     37 N          67.7725   91.9679   13.9608 N.am    1  UNL1       -0.2474
     38 C          68.8142   92.6892   14.7636 C.2     1  UNL1        0.2743
     39 O          70.1802   92.9174   14.1874 O.2     1  UNL1       -0.2705
     40 C          68.4900   93.1822   16.1428 C.3     1  UNL1        0.2900
     41 O          67.1240   92.9539   16.7190 O.3     1  UNL1       -0.4643
     42 C          68.0967   91.4750   12.5818 C.3     1  UNL1        0.1399
     43 C          67.7467   92.3094   11.3854 C.2     1  UNL1        0.0708
     44 O          68.1561   91.8622   10.0134 O.co2   1  UNL1       -0.5474
     45 O          66.9874   93.5910   11.5611 O.co2   1  UNL1       -0.5474
@<TRIPOS>UNITY_ATOM_ATTR
44 1
charge -1
@<TRIPOS>BOND
     1    27    28    1
     2    28    21    1
     3    21    22   ar
     4    22    23   ar
     5    23    24   ar
     6    24    25   ar
     7    25    26   ar
     8    26    20    1
     9    20    19    1
    10    19    18    1
    11    18    17    1
    12    17    16    1
    13    16    15    1
    14    15     9    1
    15     9    10   ar
    16    10    11   ar
    17    11    12   ar
    18    12     1    1
    19     1     2   am
    20     2     3    2
    21     2     4    1
    22     4     5    1
    23     5     6    1
    24     6     7    1
    25     7    29    1
    26    29    30    1
    27    30    31    1
    28    31    32   ar
    29    32    33   ar
    30    33    34   ar
    31    34    35   ar
    32    35    36   ar
    33    35    37    1
    34    37    42    1
    35    42    43    1
    36    43    44   ar
    37    43    45   ar
    38    37    38   am
    39    38    39    2
    40    38    40    1
    41    40    41    1
    42    12    13   ar
    43    13    14   ar
    44    26    21   ar
    45    14     9   ar
    46     7     1    1
    47    36    31   ar
    48    41    34    1
    49     5     8    1
@<TRIPOS>MOLECULE
*****
 45 49 0 0 0
SMALL
GASTEIGER

@<TRIPOS>ATOM
      1 N          61.1760   87.7384    9.1446 N.am    1  UNL1       -0.2569
      2 C          59.7680   88.1270    8.8034 C.2     1  UNL1        0.2455
      3 O          59.1767   89.3815    9.3749 O.2     1  UNL1       -0.2730
      4 C          58.9512   87.2612    7.8906 C.3     1  UNL1        0.1555
      5 N          59.5424   86.0067    7.3190 N.3     1  UNL1       -0.2884
      6 C          60.9504   85.6181    7.6603 C.3     1  UNL1        0.0902
      7 C          61.7672   86.4839    8.5730 C.3     1  UNL1        0.1066
      8 H          59.4997   86.0970    6.3039 H       1  UNL1        0.1237
      9 C          63.6263   90.3359   11.8830 C.ar    1  UNL1        0.1386
     10 C          63.2227   90.8433   10.5303 C.ar    1  UNL1        0.0382
     11 C          62.4059   89.9774    9.6176 C.ar    1  UNL1        0.0180
     12 C          61.9927   88.6042   10.0574 C.ar    1  UNL1        0.0541
     13 C          62.3963   88.0969   11.4100 C.ar    1  UNL1        0.0180
     14 C          63.2131   88.9627   12.3228 C.ar    1  UNL1        0.0382
     15 O          64.4431   91.2018   12.7958 O.3     1  UNL1       -0.4754
     16 C          65.0621   90.6159   14.0301 C.3     1  UNL1        0.2080
     17 C          66.1898   91.3297   14.7148 C.3     1  UNL1        0.0794
     18 C          66.1740   92.8257   14.8241 C.3     1  UNL1        0.1465
     19 O          66.8922   93.6598   13.8050 O.3     1  UNL1       -0.3488
     20 C          66.2190   94.0061   12.5101 C.3     1  UNL1        0.1716
     21 C          67.0722   94.8054   10.1900 C.ar    1  UNL1        0.1370
     22 C          67.7573   94.5155    8.8874 C.ar    1  UNL1        0.0367
     23 C          68.2744   93.1367    8.6025 C.ar    1  UNL1        0.0031
     24 C          68.1064   92.0475    9.6202 C.ar    1  UNL1       -0.0000
     25 C          67.4213   92.3373   10.9227 C.ar    1  UNL1        0.0012
     26 C          66.9041   93.7163   11.2076 C.ar    1  UNL1        0.0413
     27 C          65.1919   96.5879    9.9962 C.3     1  UNL1        0.2525
     28 O          66.5550   96.1843   10.4748 O.3     1  UNL1       -0.4717
     29 C          63.1752   86.0952    8.9143 C.3     1  UNL1        0.0837
     30 S          63.5776   84.6503    8.9052 S.3     1  UNL1       -0.1118
     31 C          63.3904   83.8118   10.1349 C.ar    1  UNL1        0.0267
     32 C          63.3498   82.3165   10.0241 C.ar    1  UNL1        0.0093
     33 C          63.1626   81.4782   11.2537 C.ar    1  UNL1        0.0387
     34 C          63.0160   82.1352   12.5942 C.ar    1  UNL1        0.1528
     35 C          63.0566   83.6305   12.7050 C.ar    1  UNL1        0.0889
     36 C          63.2437   84.4688   11.4754 C.ar    1  UNL1        0.0241
     37 N          62.9099   84.2875   14.0455 N.am    1  UNL1       -0.2474
     38 C          62.7227   83.4491   15.2752 C.2     1  UNL1        0.2743
     39 O          62.5761   84.1061   16.6156 O.2     1  UNL1       -0.2705
     40 C          62.6822   81.9537   15.1644 C.3     1  UNL1        0.2900
     41 O          62.8288   81.2967   13.8239 O.3     1  UNL1       -0.4643
     42 C          62.9505   85.7828   14.1563 C.3     1  UNL1        0.1399
     43 C          64.0618   86.4490   14.9121 C.2     1  UNL1        0.0708
     44 O          65.4410   85.8596   14.8922 O.co2   1  UNL1       -0.5474
     45 O          63.7938   87.7046   15.6878 O.co2   1  UNL1       -0.5474
@<TRIPOS>UNITY_ATOM_ATTR
44 1
charge -1
@<TRIPOS>BOND
     1    27    28    1
     2    28    21    1
     3    21    22   ar
     4    22    23   ar
     5    23    24   ar
     6    24    25   ar
     7    25    26   ar
     8    26    20    1
     9    20    19    1
    10    19    18    1
    11    18    17    1
    12    17    16    1
    13    16    15    1
    14    15     9    1
    15     9    10   ar
    16    10    11   ar
    17    11    12   ar
    18    12     1    1
    19     1     2   am
    20     2     3    2
    21     2     4    1
    22     4     5    1
    23     5     6    1
    24     6     7    1
    25     7    29    1
    26    29    30    1
    27    30    31    1
    28    31    32   ar
    29    32    33   ar
    30    33    34   ar
    31    34    35   ar
    32    35    36   ar
    33    35    37    1
    34    37    42    1
    35    42    43    1
    36    43    44   ar
    37    43    45   ar
    38    37    38   am
    39    38    39    2
    40    38    40    1
    41    40    41    1
    42    12    13   ar
    43    13    14   ar
    44    26    21   ar
    45    14     9   ar
    46     7     1    1
    47    36    31   ar
    48    41    34    1
    49     5     8    1
@<TRIPOS>MOLECULE
*****
 45 49 0 0 0
SMALL
GASTEIGER

@<TRIPOS>ATOM
      1 N          61.1819   87.6417    9.1510 N.am    1  UNL1       -0.2569
      2 C          59.7555   87.9694    8.8223 C.2     1  UNL1        0.2455
      3 O          59.1083   89.1841    9.4189 O.2     1  UNL1       -0.2730
      4 C          58.9762   87.0825    7.8971 C.3     1  UNL1        0.1555
      5 N          59.6232   85.8678    7.3005 N.3     1  UNL1       -0.2884
      6 C          61.0496   85.5402    7.6291 C.3     1  UNL1        0.0902
      7 C          61.8289   86.4271    8.5544 C.3     1  UNL1        0.1066
      8 H          59.5715   85.9743    6.2874 H       1  UNL1        0.1237
      9 C          63.5198   90.3025   11.9267 C.ar    1  UNL1        0.1386
     10 C          63.1652   88.9070   12.3471 C.ar    1  UNL1        0.0382
     11 C          62.3859   88.0201   11.4219 C.ar    1  UNL1        0.0180
     12 C          61.9612   88.5286   10.0762 C.ar    1  UNL1        0.0541
     13 C          62.3157   89.9241    9.6557 C.ar    1  UNL1        0.0180
     14 C          63.0950   90.8110   10.5810 C.ar    1  UNL1        0.0382
     15 O          64.2991   91.1894   12.8519 O.3     1  UNL1       -0.4754
     16 C          65.1619   90.5855   13.9199 C.3     1  UNL1        0.2080
     17 C          66.2522   91.3988   14.5523 C.3     1  UNL1        0.0794
     18 C          67.3707   91.9374   13.7103 C.3     1  UNL1        0.1465
     19 O          67.3153   93.3478   13.2028 O.3     1  UNL1       -0.3488
     20 C          66.2055   93.7725   12.2875 C.3     1  UNL1        0.1716
     21 C          67.4588   94.1739   10.0474 C.ar    1  UNL1        0.1370
     22 C          67.7554   95.0450    8.8628 C.ar    1  UNL1        0.0367
     23 C          67.0954   96.3857    8.7337 C.ar    1  UNL1        0.0031
     24 C          66.1386   96.8554    9.7892 C.ar    1  UNL1       -0.0000
     25 C          65.8420   95.9844   10.9738 C.ar    1  UNL1        0.0012
     26 C          66.5021   94.6436   11.1029 C.ar    1  UNL1        0.0413
     27 C          68.7455   92.1870    8.9765 C.3     1  UNL1        0.2525
     28 O          68.1189   92.8331   10.1764 O.3     1  UNL1       -0.4717
     29 C          63.2554   86.0993    8.8830 C.3     1  UNL1        0.0837
     30 S          63.7140   84.6712    8.8912 S.3     1  UNL1       -0.1118
     31 C          63.4767   83.8142   10.0993 C.ar    1  UNL1        0.0267
     32 C          63.4109   82.3222    9.9592 C.ar    1  UNL1        0.0093
     33 C          63.1736   81.4653   11.1671 C.ar    1  UNL1        0.0387
     34 C          63.0020   82.1003   12.5152 C.ar    1  UNL1        0.1528
     35 C          63.0678   83.5923   12.6553 C.ar    1  UNL1        0.0889
     36 C          63.3051   84.4492   11.4473 C.ar    1  UNL1        0.0241
     37 N          62.8962   84.2273   14.0034 N.am    1  UNL1       -0.2474
     38 C          62.6588   83.3703   15.2114 C.2     1  UNL1        0.2743
     39 O          62.4872   84.0053   16.5594 O.2     1  UNL1       -0.2705
     40 C          62.5931   81.8783   15.0713 C.3     1  UNL1        0.2900
     41 O          62.7647   81.2433   13.7232 O.3     1  UNL1       -0.4643
     42 C          62.9619   85.7192   14.1435 C.3     1  UNL1        0.1399
     43 C          64.1149   86.3550   14.8620 C.2     1  UNL1        0.0708
     44 O          65.4599   85.6910   14.8570 O.co2   1  UNL1       -0.5474
     45 O          63.9230   87.6549   15.5856 O.co2   1  UNL1       -0.5474
@<TRIPOS>UNITY_ATOM_ATTR
44 1
charge -1
@<TRIPOS>BOND
     1    27    28    1
     2    28    21    1
     3    21    22   ar
     4    22    23   ar
     5    23    24   ar
     6    24    25   ar
     7    25    26   ar
     8    26    20    1
     9    20    19    1
    10    19    18    1
    11    18    17    1
    12    17    16    1
    13    16    15    1
    14    15     9    1
    15     9    10   ar
    16    10    11   ar
    17    11    12   ar
    18    12     1    1
    19     1     2   am
    20     2     3    2
    21     2     4    1
    22     4     5    1
    23     5     6    1
    24     6     7    1
    25     7    29    1
    26    29    30    1
    27    30    31    1
    28    31    32   ar
    29    32    33   ar
    30    33    34   ar
    31    34    35   ar
    32    35    36   ar
    33    35    37    1
    34    37    42    1
    35    42    43    1
    36    43    44   ar
    37    43    45   ar
    38    37    38   am
    39    38    39    2
    40    38    40    1
    41    40    41    1
    42    12    13   ar
    43    13    14   ar
    44    26    21   ar
    45    14     9   ar
    46     7     1    1
    47    36    31   ar
    48    41    34    1
    49     5     8    1
@<TRIPOS>MOLECULE
*****
 45 49 0 0 0
SMALL
GASTEIGER

@<TRIPOS>ATOM
      1 N          63.3709   83.1348   12.9773 N.am    1  UNL1       -0.2569
      2 C          62.7684   82.0775   13.8543 C.2     1  UNL1        0.2455
      3 O          62.4765   82.3750   15.2953 O.2     1  UNL1       -0.2730
      4 C          62.4578   80.7227   13.2904 C.3     1  UNL1        0.1555
      5 N          62.7497   80.4252   11.8495 N.3     1  UNL1       -0.2884
      6 C          63.3521   81.4825   10.9725 C.3     1  UNL1        0.0902
      7 C          63.6628   82.8373   11.5364 C.3     1  UNL1        0.1066
      8 H          61.8651   80.1549   11.4196 H       1  UNL1        0.1237
      9 C          64.3027   87.1992   14.6691 C.ar    1  UNL1        0.1386
     10 C          64.8324   85.9675   15.3415 C.ar    1  UNL1        0.0382
     11 C          64.5218   84.6127   14.7776 C.ar    1  UNL1        0.0180
     12 C          63.6815   84.4896   13.5412 C.ar    1  UNL1        0.0541
     13 C          63.1518   85.7213   12.8688 C.ar    1  UNL1        0.0180
     14 C          63.4624   87.0761   13.4327 C.ar    1  UNL1        0.0382
     15 O          64.6133   88.5540   15.2330 O.3     1  UNL1       -0.4754
     16 C          64.8451   89.7148   14.3117 C.3     1  UNL1        0.2080
     17 C          65.2292   91.0521   14.8721 C.3     1  UNL1        0.0794
     18 C          66.2734   91.8814   14.1849 C.3     1  UNL1        0.1465
     19 O          65.8751   93.1176   13.4345 O.3     1  UNL1       -0.3488
     20 C          65.4245   93.0163   12.0075 C.3     1  UNL1        0.1716
     21 C          66.4254   94.5240   10.1434 C.ar    1  UNL1        0.1370
     22 C          67.4083   94.7332    9.0298 C.ar    1  UNL1        0.0367
     23 C          68.3734   93.6438    8.6667 C.ar    1  UNL1        0.0031
     24 C          68.3555   92.3451    9.4173 C.ar    1  UNL1       -0.0000
     25 C          67.3726   92.1360   10.5309 C.ar    1  UNL1        0.0012
     26 C          66.4075   93.2254   10.8939 C.ar    1  UNL1        0.0413
     27 C          65.9285   96.7959   11.3017 C.3     1  UNL1        0.2525
     28 O          65.4603   95.6135   10.5064 O.3     1  UNL1       -0.4717
     29 C          64.2653   83.8946   10.6594 C.3     1  UNL1        0.0837
     30 S          63.9155   83.9489    9.2018 S.3     1  UNL1       -0.1118
     31 C          62.8362   84.8744    8.7234 C.ar    1  UNL1        0.0267
     32 C          62.0532   84.5388    7.4888 C.ar    1  UNL1        0.0093
     33 C          60.9741   85.4643    7.0105 C.ar    1  UNL1        0.0387
     34 C          60.6779   86.7253    7.7668 C.ar    1  UNL1        0.1528
     35 C          61.4609   87.0609    9.0014 C.ar    1  UNL1        0.0889
     36 C          62.5400   86.1354    9.4797 C.ar    1  UNL1        0.0241
     37 N          61.1647   88.3220    9.7577 N.am    1  UNL1       -0.2474
     38 C          60.0855   89.2475    9.2794 C.2     1  UNL1        0.2743
     39 O          59.7894   90.5086   10.0357 O.2     1  UNL1       -0.2705
     40 C          59.3025   88.9119    8.0447 C.3     1  UNL1        0.2900
     41 O          59.5986   87.6509    7.2884 O.3     1  UNL1       -0.4643
     42 C          61.9477   88.6576   10.9923 C.3     1  UNL1        0.1399
     43 C          62.5694   90.0146   11.1403 C.2     1  UNL1        0.0708
     44 O          63.1767   90.6953    9.9497 O.co2   1  UNL1       -0.5474
     45 O          62.5838   90.6910   12.4792 O.co2   1  UNL1       -0.5474
@<TRIPOS>UNITY_ATOM_ATTR
44 1
charge -1
@<TRIPOS>BOND
     1    27    28    1
     2    28    21    1
     3    21    22   ar
     4    22    23   ar
     5    23    24   ar
     6    24    25   ar
     7    25    26   ar
     8    26    20    1
     9    20    19    1
    10    19    18    1
    11    18    17    1
    12    17    16    1
    13    16    15    1
    14    15     9    1
    15     9    10   ar
    16    10    11   ar
    17    11    12   ar
    18    12     1    1
    19     1     2   am
    20     2     3    2
    21     2     4    1
    22     4     5    1
    23     5     6    1
    24     6     7    1
    25     7    29    1
    26    29    30    1
    27    30    31    1
    28    31    32   ar
    29    32    33   ar
    30    33    34   ar
    31    34    35   ar
    32    35    36   ar
    33    35    37    1
    34    37    42    1
    35    42    43    1
    36    43    44   ar
    37    43    45   ar
    38    37    38   am
    39    38    39    2
    40    38    40    1
    41    40    41    1
    42    12    13   ar
    43    13    14   ar
    44    26    21   ar
    45    14     9   ar
    46     7     1    1
    47    36    31   ar
    48    41    34    1
    49     5     8    1
@<TRIPOS>MOLECULE
*****
 45 49 0 0 0
SMALL
GASTEIGER

@<TRIPOS>ATOM
      1 N          61.3797   86.6797    9.7375 N.am    1  UNL1       -0.2569
      2 C          62.2640   85.5632    9.2671 C.2     1  UNL1        0.2455
      3 O          62.3574   85.2460    7.8039 O.2     1  UNL1       -0.2730
      4 C          63.0551   84.7639   10.2597 C.3     1  UNL1        0.1555
      5 N          62.9618   85.0811   11.7228 N.3     1  UNL1       -0.2884
      6 C          62.0774   86.1976   12.1932 C.3     1  UNL1        0.0902
      7 C          61.2864   86.9969   11.2006 C.3     1  UNL1        0.1066
      8 H          63.9067   85.3016   12.0372 H       1  UNL1        0.1237
      9 C          59.0066   89.0776    6.7595 C.ar    1  UNL1        0.1386
     10 C          60.0734   89.7424    7.5779 C.ar    1  UNL1        0.0382
     11 C          60.8645   88.9431    8.5706 C.ar    1  UNL1        0.0180
     12 C          60.5887   87.4790    8.7448 C.ar    1  UNL1        0.0541
     13 C          59.5218   86.8143    7.9264 C.ar    1  UNL1        0.0180
     14 C          58.7308   87.6136    6.9337 C.ar    1  UNL1        0.0382
     15 O          58.2155   89.8769    5.7668 O.3     1  UNL1       -0.4754
     16 C          58.5133   91.3337    5.5692 C.3     1  UNL1        0.2080
     17 C          58.7829   91.8641    4.1923 C.3     1  UNL1        0.0794
     18 C          59.7620   92.9839    3.9983 C.3     1  UNL1        0.1465
     19 O          59.9527   93.5861    2.6378 O.3     1  UNL1       -0.3488
     20 C          60.6566   92.8087    1.5654 C.3     1  UNL1        0.1716
     21 C          63.2309   93.0016    1.8578 C.ar    1  UNL1        0.1370
     22 C          64.5650   93.4626    1.3502 C.ar    1  UNL1        0.0367
     23 C          64.6589   94.1916    0.0427 C.ar    1  UNL1        0.0031
     24 C          63.4186   94.4598   -0.7573 C.ar    1  UNL1       -0.0000
     25 C          62.0845   93.9988   -0.2497 C.ar    1  UNL1        0.0012
     26 C          61.9907   93.2697    1.0579 C.ar    1  UNL1        0.0413
     27 C          63.3640   90.7906    3.2157 C.3     1  UNL1        0.2525
     28 O          63.1371   92.2724    3.1653 O.3     1  UNL1       -0.4717
     29 C          60.4020   88.1134   11.6710 C.3     1  UNL1        0.0837
     30 S          60.9602   89.1925   12.5508 S.3     1  UNL1       -0.1118
     31 C          62.0849   90.0545   12.0586 C.ar    1  UNL1        0.0267
     32 C          62.0632   90.5875   10.6567 C.ar    1  UNL1        0.0093
     33 C          63.1878   91.4494   10.1646 C.ar    1  UNL1        0.0387
     34 C          64.3341   91.7784   11.0744 C.ar    1  UNL1        0.1528
     35 C          64.3558   91.2455   12.4763 C.ar    1  UNL1        0.0889
     36 C          63.2311   90.3835   12.9684 C.ar    1  UNL1        0.0241
     37 N          65.5021   91.5744   13.3862 N.am    1  UNL1       -0.2474
     38 C          66.6267   92.4364   12.8941 C.2     1  UNL1        0.2743
     39 O          67.7730   92.7654   13.8039 O.2     1  UNL1       -0.2705
     40 C          66.6051   92.9694   11.4921 C.3     1  UNL1        0.2900
     41 O          65.4588   92.6404   10.5823 O.3     1  UNL1       -0.4643
     42 C          65.5237   91.0415   14.7881 C.3     1  UNL1        0.1399
     43 C          65.0305   91.8915   15.9213 C.2     1  UNL1        0.0708
     44 O          65.9975   92.7220   16.7120 O.co2   1  UNL1       -0.5474
     45 O          63.5702   91.9110   16.2639 O.co2   1  UNL1       -0.5474
@<TRIPOS>UNITY_ATOM_ATTR
44 1
charge -1
@<TRIPOS>BOND
     1    27    28    1
     2    28    21    1
     3    21    22   ar
     4    22    23   ar
     5    23    24   ar
     6    24    25   ar
     7    25    26   ar
     8    26    20    1
     9    20    19    1
    10    19    18    1
    11    18    17    1
    12    17    16    1
    13    16    15    1
    14    15     9    1
    15     9    10   ar
    16    10    11   ar
    17    11    12   ar
    18    12     1    1
    19     1     2   am
    20     2     3    2
    21     2     4    1
    22     4     5    1
    23     5     6    1
    24     6     7    1
    25     7    29    1
    26    29    30    1
    27    30    31    1
    28    31    32   ar
    29    32    33   ar
    30    33    34   ar
    31    34    35   ar
    32    35    36   ar
    33    35    37    1
    34    37    42    1
    35    42    43    1
    36    43    44   ar
    37    43    45   ar
    38    37    38   am
    39    38    39    2
    40    38    40    1
    41    40    41    1
    42    12    13   ar
    43    13    14   ar
    44    26    21   ar
    45    14     9   ar
    46     7     1    1
    47    36    31   ar
    48    41    34    1
    49     5     8    1
@<TRIPOS>MOLECULE
*****
 45 49 0 0 0
SMALL
GASTEIGER

@<TRIPOS>ATOM
      1 N          63.4456   82.9467   12.6912 N.am    1  UNL1       -0.2569
      2 C          62.8670   81.8650   13.5543 C.2     1  UNL1        0.2455
      3 O          62.6090   82.1238   15.0091 O.2     1  UNL1       -0.2730
      4 C          62.5464   80.5244   12.9627 C.3     1  UNL1        0.1555
      5 N          62.8044   80.2655   11.5079 N.3     1  UNL1       -0.2884
      6 C          63.3830   81.3472   10.6448 C.3     1  UNL1        0.0902
      7 C          63.7036   82.6878   11.2364 C.3     1  UNL1        0.1066
      8 H          61.9104   80.0038   11.0924 H       1  UNL1        0.1237
      9 C          64.4074   86.9685   14.4660 C.ar    1  UNL1        0.1386
     10 C          63.3940   86.8572   13.3658 C.ar    1  UNL1        0.0382
     11 C          63.0734   85.5166   12.7742 C.ar    1  UNL1        0.0180
     12 C          63.7662   84.2873   13.2828 C.ar    1  UNL1        0.0541
     13 C          64.7796   84.3986   14.3830 C.ar    1  UNL1        0.0180
     14 C          65.1002   85.7392   14.9746 C.ar    1  UNL1        0.0382
     15 O          64.7280   88.3091   15.0576 O.3     1  UNL1       -0.4754
     16 C          63.6195   89.2251   15.4844 C.3     1  UNL1        0.2080
     17 C          63.6988   90.6915   15.1790 C.3     1  UNL1        0.0794
     18 C          64.9691   91.2771   14.6371 C.3     1  UNL1        0.1465
     19 O          65.5111   92.5530   15.2102 O.3     1  UNL1       -0.3488
     20 C          66.2627   93.5096   14.3328 C.3     1  UNL1        0.1716
     21 C          67.8323   92.2492   12.6904 C.ar    1  UNL1        0.1370
     22 C          68.2003   91.8529   11.2913 C.ar    1  UNL1        0.0367
     23 C          67.3665   92.3206   10.1355 C.ar    1  UNL1        0.0031
     24 C          66.1647   93.1847   10.3787 C.ar    1  UNL1       -0.0000
     25 C          65.7968   93.5811   11.7778 C.ar    1  UNL1        0.0012
     26 C          66.6306   93.1133   12.9337 C.ar    1  UNL1        0.0413
     27 C          69.1216   92.7606   14.8874 C.3     1  UNL1        0.2525
     28 O          68.6662   91.7815   13.8463 O.3     1  UNL1       -0.4717
     29 C          64.2822   83.7696   10.3732 C.3     1  UNL1        0.0837
     30 S          63.8498   83.8994    8.9428 S.3     1  UNL1       -0.1118
     31 C          62.7544   84.8556    8.5742 C.ar    1  UNL1        0.0267
     32 C          61.7882   84.5043    7.4820 C.ar    1  UNL1        0.0093
     33 C          60.6928   85.4605    7.1135 C.ar    1  UNL1        0.0387
     34 C          60.5637   86.7680    7.8371 C.ar    1  UNL1        0.1528
     35 C          61.5300   87.1194    8.9293 C.ar    1  UNL1        0.0889
     36 C          62.6253   86.1632    9.2978 C.ar    1  UNL1        0.0241
     37 N          61.4009   88.4269    9.6529 N.am    1  UNL1       -0.2474
     38 C          60.3055   89.3831    9.2844 C.2     1  UNL1        0.2743
     39 O          60.1765   90.6907   10.0080 O.2     1  UNL1       -0.2705
     40 C          59.3392   89.0318    8.1922 C.3     1  UNL1        0.2900
     41 O          59.4683   87.7243    7.4685 O.3     1  UNL1       -0.4643
     42 C          62.3671   88.7783   10.7451 C.3     1  UNL1        0.1399
     43 C          61.9848   89.7846   11.7896 C.2     1  UNL1        0.0708
     44 O          60.8513   89.4970   12.7289 O.co2   1  UNL1       -0.5474
     45 O          62.7361   91.0787   11.8949 O.co2   1  UNL1       -0.5474
@<TRIPOS>UNITY_ATOM_ATTR
44 1
charge -1
@<TRIPOS>BOND
     1    27    28    1
     2    28    21    1
     3    21    22   ar
     4    22    23   ar
     5    23    24   ar
     6    24    25   ar
     7    25    26   ar
     8    26    20    1
     9    20    19    1
    10    19    18    1
    11    18    17    1
    12    17    16    1
    13    16    15    1
    14    15     9    1
    15     9    10   ar
    16    10    11   ar
    17    11    12   ar
    18    12     1    1
    19     1     2   am
    20     2     3    2
    21     2     4    1
    22     4     5    1
    23     5     6    1
    24     6     7    1
    25     7    29    1
    26    29    30    1
    27    30    31    1
    28    31    32   ar
    29    32    33   ar
    30    33    34   ar
    31    34    35   ar
    32    35    36   ar
    33    35    37    1
    34    37    42    1
    35    42    43    1
    36    43    44   ar
    37    43    45   ar
    38    37    38   am
    39    38    39    2
    40    38    40    1
    41    40    41    1
    42    12    13   ar
    43    13    14   ar
    44    26    21   ar
    45    14     9   ar
    46     7     1    1
    47    36    31   ar
    48    41    34    1
    49     5     8    1
@<TRIPOS>MOLECULE
*****
 45 49 0 0 0
SMALL
GASTEIGER

@<TRIPOS>ATOM
      1 N          63.1782   84.6898   12.1431 N.am    1  UNL1       -0.2569
      2 C          63.7042   83.2855   12.1072 C.2     1  UNL1        0.2455
      3 O          63.5505   82.4586   10.8652 O.2     1  UNL1       -0.2730
      4 C          64.3838   82.7082   13.3133 C.3     1  UNL1        0.1555
      5 N          64.5375   83.5350   14.5553 N.3     1  UNL1       -0.2884
      6 C          64.0115   84.9393   14.5912 C.3     1  UNL1        0.0902
      7 C          63.3319   85.5167   13.3851 C.3     1  UNL1        0.1066
      8 H          65.5371   83.5899   14.7507 H       1  UNL1        0.1237
      9 C          61.1393   86.4219    8.5247 C.ar    1  UNL1        0.1386
     10 C          60.5983   86.7006    9.8957 C.ar    1  UNL1        0.0382
     11 C          61.2779   86.1232   11.1018 C.ar    1  UNL1        0.0180
     12 C          62.4986   85.2672   10.9370 C.ar    1  UNL1        0.0541
     13 C          63.0396   84.9885    9.5660 C.ar    1  UNL1        0.0180
     14 C          62.3599   85.5659    8.3599 C.ar    1  UNL1        0.0382
     15 O          60.4596   86.9993    7.3186 O.3     1  UNL1       -0.4754
     16 C          59.3878   88.0353    7.4858 C.3     1  UNL1        0.2080
     17 C          59.6867   89.4768    7.1984 C.3     1  UNL1        0.0794
     18 C          59.2251   90.0967    5.9128 C.3     1  UNL1        0.1465
     19 O          60.2011   90.8291    5.0405 O.3     1  UNL1       -0.3488
     20 C          59.8166   92.1403    4.4216 C.3     1  UNL1        0.1716
     21 C          61.7831   92.2771    2.7292 C.ar    1  UNL1        0.1370
     22 C          62.3069   92.6489    1.3737 C.ar    1  UNL1        0.0367
     23 C          61.3881   93.2557    0.3551 C.ar    1  UNL1        0.0031
     24 C          59.9454   93.4907    0.6920 C.ar    1  UNL1       -0.0000
     25 C          59.4216   93.1189    2.0475 C.ar    1  UNL1        0.0012
     26 C          60.3405   92.5121    3.0661 C.ar    1  UNL1        0.0413
     27 C          63.6739   90.6031    3.3397 C.3     1  UNL1        0.2525
     28 O          62.7020   91.6703    3.7478 O.3     1  UNL1       -0.4717
     29 C          62.8059   86.9210   13.4210 C.3     1  UNL1        0.0837
     30 S          63.7006   88.0463   13.8488 S.3     1  UNL1       -0.1118
     31 C          63.8686   89.2479   12.9667 C.ar    1  UNL1        0.0267
     32 C          63.1554   89.3165   11.6489 C.ar    1  UNL1        0.0093
     33 C          63.3233   90.5180   10.7669 C.ar    1  UNL1        0.0387
     34 C          64.2044   91.6511   11.2027 C.ar    1  UNL1        0.1528
     35 C          64.9176   91.5825   12.5205 C.ar    1  UNL1        0.0889
     36 C          64.7497   90.3809   13.4025 C.ar    1  UNL1        0.0241
     37 N          65.7988   92.7155   12.9563 N.am    1  UNL1       -0.2474
     38 C          65.9667   93.9171   12.0742 C.2     1  UNL1        0.2743
     39 O          66.8478   95.0501   12.5100 O.2     1  UNL1       -0.2705
     40 C          65.2535   93.9857   10.7564 C.3     1  UNL1        0.2900
     41 O          64.3724   92.8527   10.3206 O.3     1  UNL1       -0.4643
     42 C          66.5119   92.6470   14.2740 C.3     1  UNL1        0.1399
     43 C          67.9648   92.2770   14.3222 C.2     1  UNL1        0.0708
     44 O          68.6830   92.2279   15.6381 O.co2   1  UNL1       -0.5474
     45 O          68.6994   91.9559   13.0544 O.co2   1  UNL1       -0.5474
@<TRIPOS>UNITY_ATOM_ATTR
44 1
charge -1
@<TRIPOS>BOND
     1    27    28    1
     2    28    21    1
     3    21    22   ar
     4    22    23   ar
     5    23    24   ar
     6    24    25   ar
     7    25    26   ar
     8    26    20    1
     9    20    19    1
    10    19    18    1
    11    18    17    1
    12    17    16    1
    13    16    15    1
    14    15     9    1
    15     9    10   ar
    16    10    11   ar
    17    11    12   ar
    18    12     1    1
    19     1     2   am
    20     2     3    2
    21     2     4    1
    22     4     5    1
    23     5     6    1
    24     6     7    1
    25     7    29    1
    26    29    30    1
    27    30    31    1
    28    31    32   ar
    29    32    33   ar
    30    33    34   ar
    31    34    35   ar
    32    35    36   ar
    33    35    37    1
    34    37    42    1
    35    42    43    1
    36    43    44   ar
    37    43    45   ar
    38    37    38   am
    39    38    39    2
    40    38    40    1
    41    40    41    1
    42    12    13   ar
    43    13    14   ar
    44    26    21   ar
    45    14     9   ar
    46     7     1    1
    47    36    31   ar
    48    41    34    1
    49     5     8    1
@<TRIPOS>MOLECULE
*****
 45 49 0 0 0
SMALL
GASTEIGER

@<TRIPOS>ATOM
      1 N          63.3429   82.5649   12.5630 N.am    1  UNL1       -0.2569
      2 C          62.8022   81.3976   13.3345 C.2     1  UNL1        0.2455
      3 O          62.5281   81.5315   14.8032 O.2     1  UNL1       -0.2730
      4 C          62.5356   80.0965   12.6374 C.3     1  UNL1        0.1555
      5 N          62.8097   79.9626   11.1688 N.3     1  UNL1       -0.2884
      6 C          63.3504   81.1298   10.3973 C.3     1  UNL1        0.0902
      7 C          63.6169   82.4309   11.0944 C.3     1  UNL1        0.1066
      8 H          61.9282   79.7008   10.7274 H       1  UNL1        0.1237
      9 C          64.1425   86.4683   14.6544 C.ar    1  UNL1        0.1386
     10 C          63.0359   86.3703   13.6467 C.ar    1  UNL1        0.0382
     11 C          62.7693   85.0692   12.9495 C.ar    1  UNL1        0.0180
     12 C          63.6094   83.8660   13.2602 C.ar    1  UNL1        0.0541
     13 C          64.7161   83.9640   14.2679 C.ar    1  UNL1        0.0180
     14 C          64.9827   85.2651   14.9651 C.ar    1  UNL1        0.0382
     15 O          64.4091   87.7694   15.3516 O.3     1  UNL1       -0.4754
     16 C          63.4910   88.2383   16.4411 C.3     1  UNL1        0.2080
     17 C          63.0538   89.6724   16.4880 C.3     1  UNL1        0.0794
     18 C          63.7714   90.7025   15.6669 C.3     1  UNL1        0.1465
     19 O          64.9882   90.3184   14.8783 O.3     1  UNL1       -0.3488
     20 C          65.7206   91.3539   14.0775 C.3     1  UNL1        0.1716
     21 C          66.9550   93.6137   14.4228 C.ar    1  UNL1        0.1370
     22 C          68.0604   94.4069   15.0545 C.ar    1  UNL1        0.0367
     23 C          69.0367   93.7333   15.9726 C.ar    1  UNL1        0.0031
     24 C          68.9077   92.2666   16.2591 C.ar    1  UNL1       -0.0000
     25 C          67.8024   91.4734   15.6274 C.ar    1  UNL1        0.0012
     26 C          66.8260   92.1470   14.7092 C.ar    1  UNL1        0.0413
     27 C          66.2569   94.3537   12.0321 C.3     1  UNL1        0.2525
     28 O          65.9787   94.2874   13.5046 O.3     1  UNL1       -0.4717
     29 C          64.1576   83.5982   10.3228 C.3     1  UNL1        0.0837
     30 S          63.7824   83.7837    8.8825 S.3     1  UNL1       -0.1118
     31 C          62.6906   84.7423    8.5092 C.ar    1  UNL1        0.0267
     32 C          61.7209   84.3879    7.4212 C.ar    1  UNL1        0.0093
     33 C          60.6292   85.3465    7.0481 C.ar    1  UNL1        0.0387
     34 C          60.5073   86.6596    7.7629 C.ar    1  UNL1        0.1528
     35 C          61.4771   87.0140    8.8509 C.ar    1  UNL1        0.0889
     36 C          62.5688   86.0554    9.2241 C.ar    1  UNL1        0.0241
     37 N          61.3553   88.3271    9.5657 N.am    1  UNL1       -0.2474
     38 C          60.2636   89.2857    9.1926 C.2     1  UNL1        0.2743
     39 O          60.1417   90.5988    9.9074 O.2     1  UNL1       -0.2705
     40 C          59.2937   88.9313    8.1045 C.3     1  UNL1        0.2900
     41 O          59.4156   87.6182    7.3897 O.3     1  UNL1       -0.4643
     42 C          62.3251   88.6815   10.6537 C.3     1  UNL1        0.1399
     43 C          61.8640   89.4752   11.8402 C.2     1  UNL1        0.0708
     44 O          62.7387   90.5540   12.4067 O.co2   1  UNL1       -0.5474
     45 O          60.5281   89.1899   12.4601 O.co2   1  UNL1       -0.5474
@<TRIPOS>UNITY_ATOM_ATTR
44 1
charge -1
@<TRIPOS>BOND
     1    27    28    1
     2    28    21    1
     3    21    22   ar
     4    22    23   ar
     5    23    24   ar
     6    24    25   ar
     7    25    26   ar
     8    26    20    1
     9    20    19    1
    10    19    18    1
    11    18    17    1
    12    17    16    1
    13    16    15    1
    14    15     9    1
    15     9    10   ar
    16    10    11   ar
    17    11    12   ar
    18    12     1    1
    19     1     2   am
    20     2     3    2
    21     2     4    1
    22     4     5    1
    23     5     6    1
    24     6     7    1
    25     7    29    1
    26    29    30    1
    27    30    31    1
    28    31    32   ar
    29    32    33   ar
    30    33    34   ar
    31    34    35   ar
    32    35    36   ar
    33    35    37    1
    34    37    42    1
    35    42    43    1
    36    43    44   ar
    37    43    45   ar
    38    37    38   am
    39    38    39    2
    40    38    40    1
    41    40    41    1
    42    12    13   ar
    43    13    14   ar
    44    26    21   ar
    45    14     9   ar
    46     7     1    1
    47    36    31   ar
    48    41    34    1
    49     5     8    1
