@<TRIPOS>MOLECULE
*****
 43 49 0 0 0
SMALL
GASTEIGER

@<TRIPOS>ATOM
      1 N          59.0646   92.5270    1.9920 N.pl3   1  UNL1       -0.2543
      2 C          58.0841   92.0738    3.0328 C.3     1  UNL1        0.1203
      3 C          58.5760   91.4555    4.3079 C.3     1  UNL1        0.1216
      4 N          60.0483   91.2904    4.5422 N.am    1  UNL1       -0.2403
      5 C          60.5401   90.6721    5.8172 C.2     1  UNL1        0.3078
      6 O          62.0126   90.5071    6.0515 O.2     1  UNL1       -0.2522
      7 N          59.5597   90.2189    6.8580 N.am    1  UNL1       -0.2901
      8 C          61.0289   91.7437    3.5014 C.ar    1  UNL1        0.0690
      9 C          62.5012   91.5786    3.7357 C.ar    1  UNL1        0.0162
     10 C          63.4817   92.0318    2.6949 C.ar    1  UNL1        0.0014
     11 C          62.9898   92.6501    1.4199 C.ar    1  UNL1        0.0014
     12 C          61.5175   92.8152    1.1856 C.ar    1  UNL1        0.0162
     13 C          60.5370   92.3620    2.2263 C.ar    1  UNL1        0.0678
     14 H          58.5933   90.3273    6.7042 H       1  UNL1        0.1509
     15 C          60.0515   89.6006    8.1330 C.3     1  UNL1        0.0730
     16 C          61.0778   90.3118    8.9643 C.3     1  UNL1        0.0185
     17 C          60.5434   88.9823    9.4081 C.3     1  UNL1        0.0017
     18 C          61.0352   88.3640   10.6832 C.3     1  UNL1        0.0006
     19 C          60.0090   87.6529    9.8519 C.3     1  UNL1        0.0017
     20 C          59.5171   88.2712    8.5768 C.3     1  UNL1        0.0185
     21 C          61.6948   89.2265   10.8470 C.3     1  UNL1        0.0102
     22 C          62.5959   90.4046   11.0707 C.3     1  UNL1        0.0687
     23 C          62.0615   89.0752   11.5145 C.3     1  UNL1        0.0086
     24 C          62.1040   91.0230    9.7956 C.3     1  UNL1        0.0102
     25 C          63.6221   91.1158   11.9020 C.2     1  UNL1        0.2184
     26 N          63.5802   91.0099   13.3977 N.am    1  UNL1       -0.3288
     27 O          64.6903   91.9328   11.2376 O.2     1  UNL1       -0.2754
     28 H          62.8791   90.4736   13.8337 H       1  UNL1        0.1449
     29 H          64.2538   91.4766   13.9433 H       1  UNL1        0.1449
     30 C          57.5890   94.3820   -1.8331 C.ar    1  UNL1        0.0384
     31 C          58.4202   95.1888   -0.8802 C.ar    1  UNL1        0.1033
     32 N          58.9121   94.5705    0.3948 N.ar    1  UNL1       -0.2118
     33 C          58.5727   93.1453    0.7170 C.ar    1  UNL1        0.2241
     34 N          57.7415   92.3384   -0.2360 N.ar    1  UNL1       -0.2118
     35 C          57.2496   92.9567   -1.5110 C.ar    1  UNL1        0.1033
     36 C          56.1135   96.2369   -5.6583 C.ar    1  UNL1        0.1387
     37 C          57.5727   96.2871   -5.3146 C.ar    1  UNL1        0.0369
     38 C          58.0646   95.6688   -4.0395 C.ar    1  UNL1        0.0032
     39 C          57.0972   95.0003   -3.1082 C.ar    1  UNL1        0.0032
     40 C          55.6380   94.9500   -3.4520 C.ar    1  UNL1        0.0032
     41 C          55.1462   95.5683   -4.7271 C.ar    1  UNL1        0.0369
     42 C          54.1939   96.6702   -7.3546 C.3     1  UNL1        0.2525
     43 O          55.6216   96.8552   -6.9334 O.3     1  UNL1       -0.4714
@<TRIPOS>BOND
     1    42    43    1
     2    43    36    1
     3    36    37   ar
     4    37    38   ar
     5    38    39   ar
     6    39    30    1
     7    30    31   ar
     8    31    32   ar
     9    32    33   ar
    10    33     1    1
    11     1     2    1
    12     2     3    1
    13     3     4    1
    14     4     5   am
    15     5     6    2
    16     5     7   am
    17    15     7    1
    18    15    16    1
    19    16    17    1
    20    17    18    1
    21    18    19    1
    22    19    20    1
    23    20    21    1
    24    21    22    1
    25    22    25    1
    26    25    26   am
    27    25    27    2
    28    22    23    1
    29    22    24    1
    30     4     8    1
    31     8     9   ar
    32     9    10   ar
    33    10    11   ar
    34    11    12   ar
    35    12    13   ar
    36    33    34   ar
    37    34    35   ar
    38    39    40   ar
    39    40    41   ar
    40    41    36   ar
    41    35    30   ar
    42    13     1    1
    43    20    15    1
    44    13     8   ar
    45    24    16    1
    46    23    18    1
    47     7    14    1
    48    26    28    1
    49    26    29    1
@<TRIPOS>MOLECULE
*****
 43 49 0 0 0
SMALL
GASTEIGER

@<TRIPOS>ATOM
      1 N          58.9709   92.4597    2.1095 N.pl3   1  UNL1       -0.2543
      2 C          57.9772   92.0574    3.1586 C.3     1  UNL1        0.1203
      3 C          58.4515   91.4753    4.4571 C.3     1  UNL1        0.1216
      4 N          59.9197   91.2954    4.7065 N.am    1  UNL1       -0.2403
      5 C          60.3940   90.7133    6.0050 C.2     1  UNL1        0.3078
      6 O          61.8622   90.5335    6.2544 O.2     1  UNL1       -0.2522
      7 N          59.4003   90.3111    7.0541 N.am    1  UNL1       -0.2901
      8 C          60.9135   91.6977    3.6574 C.ar    1  UNL1        0.0690
      9 C          62.3816   91.5179    3.9068 C.ar    1  UNL1        0.0162
     10 C          63.3753   91.9201    2.8577 C.ar    1  UNL1        0.0014
     11 C          62.9009   92.5022    1.5592 C.ar    1  UNL1        0.0014
     12 C          61.4328   92.6821    1.3098 C.ar    1  UNL1        0.0162
     13 C          60.4391   92.2798    2.3589 C.ar    1  UNL1        0.0678
     14 H          58.4367   90.4291    6.8904 H       1  UNL1        0.1509
     15 C          59.8747   89.7290    8.3526 C.3     1  UNL1        0.0730
     16 C          60.5751   88.4026    8.3685 C.3     1  UNL1        0.0185
     17 C          60.3491   89.1469    9.6511 C.3     1  UNL1        0.0017
     18 C          60.8234   88.5648   10.9496 C.3     1  UNL1        0.0006
     19 C          60.1231   89.8911   10.9337 C.3     1  UNL1        0.0017
     20 C          59.6487   90.4732    9.6352 C.3     1  UNL1        0.0185
     21 C          61.2150   87.6896   10.4143 C.3     1  UNL1        0.0102
     22 C          61.7498   86.4941    9.6829 C.3     1  UNL1        0.0687
     23 C          61.5238   87.2384   10.9655 C.3     1  UNL1        0.0086
     24 C          61.2754   87.0762    8.3844 C.3     1  UNL1        0.0102
     25 C          62.4502   85.1678    9.6989 C.2     1  UNL1        0.2184
     26 N          63.1474   84.6729    8.4664 N.am    1  UNL1       -0.3288
     27 O          62.4534   84.3363   10.9473 O.2     1  UNL1       -0.2754
     28 H          63.1453   85.2187    7.6470 H       1  UNL1        0.1449
     29 H          63.6071   83.8024    8.4768 H       1  UNL1        0.1449
     30 C          57.5478   94.2060   -1.7860 C.ar    1  UNL1        0.0384
     31 C          58.4421   95.0073   -0.8872 C.ar    1  UNL1        0.1033
     32 N          58.9165   94.4252    0.4113 N.ar    1  UNL1       -0.2118
     33 C          58.4965   93.0418    0.8110 C.ar    1  UNL1        0.2241
     34 N          57.6021   92.2404   -0.0879 N.ar    1  UNL1       -0.2118
     35 C          57.1277   92.8225   -1.3864 C.ar    1  UNL1        0.1033
     36 C          56.1246   95.9523   -5.6815 C.ar    1  UNL1        0.1387
     37 C          56.2735   94.4668   -5.5355 C.ar    1  UNL1        0.0369
     38 C          56.7478   93.8847   -4.2370 C.ar    1  UNL1        0.0032
     39 C          57.0734   94.7881   -3.0845 C.ar    1  UNL1        0.0032
     40 C          56.9246   96.2735   -3.2307 C.ar    1  UNL1        0.0032
     41 C          56.4502   96.8556   -4.5292 C.ar    1  UNL1        0.0369
     42 C          54.2763   96.2126   -7.4887 C.3     1  UNL1        0.2525
     43 O          55.6502   96.5344   -6.9801 O.3     1  UNL1       -0.4714
@<TRIPOS>BOND
     1    42    43    1
     2    43    36    1
     3    36    37   ar
     4    37    38   ar
     5    38    39   ar
     6    39    30    1
     7    30    31   ar
     8    31    32   ar
     9    32    33   ar
    10    33     1    1
    11     1     2    1
    12     2     3    1
    13     3     4    1
    14     4     5   am
    15     5     6    2
    16     5     7   am
    17    15     7    1
    18    15    16    1
    19    16    17    1
    20    17    18    1
    21    18    19    1
    22    19    20    1
    23    20    21    1
    24    21    22    1
    25    22    25    1
    26    25    26   am
    27    25    27    2
    28    22    23    1
    29    22    24    1
    30     4     8    1
    31     8     9   ar
    32     9    10   ar
    33    10    11   ar
    34    11    12   ar
    35    12    13   ar
    36    33    34   ar
    37    34    35   ar
    38    39    40   ar
    39    40    41   ar
    40    41    36   ar
    41    35    30   ar
    42    13     1    1
    43    20    15    1
    44    13     8   ar
    45    24    16    1
    46    23    18    1
    47     7    14    1
    48    26    28    1
    49    26    29    1
@<TRIPOS>MOLECULE
*****
 43 49 0 0 0
SMALL
GASTEIGER

@<TRIPOS>ATOM
      1 N          59.2873   92.2651    2.5923 N.pl3   1  UNL1       -0.2543
      2 C          57.9288   92.2964    1.9574 C.3     1  UNL1        0.1203
      3 C          57.7251   93.0153    0.6567 C.3     1  UNL1        0.1216
      4 N          58.8800   93.7029   -0.0090 N.am    1  UNL1       -0.2403
      5 C          58.6764   94.4218   -1.3097 C.2     1  UNL1        0.3078
      6 O          59.8314   95.1094   -1.9754 O.2     1  UNL1       -0.2522
      7 N          57.3178   94.4530   -1.9446 N.am    1  UNL1       -0.2901
      8 C          60.2387   93.6717    0.6259 C.ar    1  UNL1        0.0690
      9 C          61.3936   94.3593   -0.0398 C.ar    1  UNL1        0.0162
     10 C          62.7522   94.3280    0.5951 C.ar    1  UNL1        0.0014
     11 C          62.9559   93.6091    1.8958 C.ar    1  UNL1        0.0014
     12 C          61.8010   92.9215    2.5615 C.ar    1  UNL1        0.0162
     13 C          60.4424   92.9528    1.9266 C.ar    1  UNL1        0.0678
     14 H          56.5597   94.0017   -1.5077 H       1  UNL1        0.1509
     15 C          57.1141   95.1719   -3.2453 C.3     1  UNL1        0.0730
     16 C          55.7256   95.4177   -3.7570 C.3     1  UNL1        0.0185
     17 C          56.9104   95.8908   -4.5460 C.3     1  UNL1        0.0017
     18 C          56.7068   96.6097   -5.8466 C.3     1  UNL1        0.0006
     19 C          58.0952   96.3639   -5.3349 C.3     1  UNL1        0.0017
     20 C          58.2988   95.6450   -4.0343 C.3     1  UNL1        0.0185
     21 C          55.6192   96.5136   -5.7294 C.3     1  UNL1        0.0102
     22 C          54.1335   96.3823   -5.5694 C.3     1  UNL1        0.0687
     23 C          55.3183   96.8554   -6.3583 C.3     1  UNL1        0.0086
     24 C          54.3372   95.6634   -4.2687 C.3     1  UNL1        0.0102
     25 C          52.7451   96.6281   -6.0811 C.2     1  UNL1        0.2184
     26 N          52.4823   96.6464   -7.5578 N.am    1  UNL1       -0.3288
     27 O          51.6195   96.8556   -5.1161 O.2     1  UNL1       -0.2754
     28 H          53.2211   96.4971   -8.1911 H       1  UNL1        0.1449
     29 H          51.5710   96.8077   -7.8936 H       1  UNL1        0.1449
     30 C          59.8983   90.1085    6.4943 C.ar    1  UNL1        0.0384
     31 C          58.5119   90.4516    6.0361 C.ar    1  UNL1        0.1033
     32 N          58.3082   91.1705    4.7354 N.ar    1  UNL1       -0.2118
     33 C          59.4910   91.5462    3.8930 C.ar    1  UNL1        0.2241
     34 N          60.8775   91.2031    4.3511 N.ar    1  UNL1       -0.2118
     35 C          61.0812   90.4842    5.6518 C.ar    1  UNL1        0.1033
     36 C          60.5093   87.9518   10.3963 C.ar    1  UNL1        0.1387
     37 C          60.0981   87.1871    9.1731 C.ar    1  UNL1        0.0369
     38 C          59.8944   87.9060    7.8724 C.ar    1  UNL1        0.0032
     39 C          60.1020   89.3896    7.7949 C.ar    1  UNL1        0.0032
     40 C          60.5132   90.1542    9.0181 C.ar    1  UNL1        0.0032
     41 C          60.7169   89.4353   10.3188 C.ar    1  UNL1        0.0369
     42 C          61.5670   86.0007   11.7471 C.3     1  UNL1        0.2525
     43 O          60.7130   87.2329   11.6969 O.3     1  UNL1       -0.4714
@<TRIPOS>BOND
     1    42    43    1
     2    43    36    1
     3    36    37   ar
     4    37    38   ar
     5    38    39   ar
     6    39    30    1
     7    30    31   ar
     8    31    32   ar
     9    32    33   ar
    10    33     1    1
    11     1     2    1
    12     2     3    1
    13     3     4    1
    14     4     5   am
    15     5     6    2
    16     5     7   am
    17    15     7    1
    18    15    16    1
    19    16    17    1
    20    17    18    1
    21    18    19    1
    22    19    20    1
    23    20    21    1
    24    21    22    1
    25    22    25    1
    26    25    26   am
    27    25    27    2
    28    22    23    1
    29    22    24    1
    30     4     8    1
    31     8     9   ar
    32     9    10   ar
    33    10    11   ar
    34    11    12   ar
    35    12    13   ar
    36    33    34   ar
    37    34    35   ar
    38    39    40   ar
    39    40    41   ar
    40    41    36   ar
    41    35    30   ar
    42    13     1    1
    43    20    15    1
    44    13     8   ar
    45    24    16    1
    46    23    18    1
    47     7    14    1
    48    26    28    1
    49    26    29    1
@<TRIPOS>MOLECULE
*****
 43 49 0 0 0
SMALL
GASTEIGER

@<TRIPOS>ATOM
      1 N          60.9478   90.1856    7.2384 N.pl3   1  UNL1       -0.2543
      2 C          62.0408   90.6767    8.1407 C.3     1  UNL1        0.1203
      3 C          62.3828   89.9158    9.3873 C.3     1  UNL1        0.1216
      4 N          61.6320   88.6638    9.7316 N.am    1  UNL1       -0.2403
      5 C          61.9740   87.9029   10.9782 C.2     1  UNL1        0.3078
      6 O          61.2231   86.6508   11.3225 O.2     1  UNL1       -0.2522
      7 N          63.0669   88.3940   11.8806 N.am    1  UNL1       -0.2901
      8 C          60.5390   88.1726    8.8292 C.ar    1  UNL1        0.0690
      9 C          59.7881   86.9206    9.1735 C.ar    1  UNL1        0.0162
     10 C          58.6952   86.4294    8.2712 C.ar    1  UNL1        0.0014
     11 C          58.3531   87.1903    7.0246 C.ar    1  UNL1        0.0014
     12 C          59.1040   88.4423    6.6803 C.ar    1  UNL1        0.0162
     13 C          60.1969   88.9335    7.5826 C.ar    1  UNL1        0.0678
     14 H          63.5598   89.2158   11.6546 H       1  UNL1        0.1509
     15 C          63.4090   87.6331   13.1272 C.3     1  UNL1        0.0730
     16 C          63.2427   86.1428   13.1656 C.3     1  UNL1        0.0185
     17 C          63.7510   86.8723   14.3738 C.3     1  UNL1        0.0017
     18 C          64.0931   86.1114   15.6204 C.3     1  UNL1        0.0006
     19 C          64.2594   87.6016   15.5819 C.3     1  UNL1        0.0017
     20 C          63.9173   88.3625   14.3353 C.3     1  UNL1        0.0185
     21 C          63.8080   85.1732   15.1260 C.3     1  UNL1        0.0102
     22 C          63.4185   83.8917   14.4507 C.3     1  UNL1        0.0687
     23 C          63.9268   84.6211   15.6588 C.3     1  UNL1        0.0086
     24 C          63.0764   84.6526   13.2041 C.3     1  UNL1        0.0102
     25 C          63.2522   82.4015   14.4892 C.2     1  UNL1        0.2184
     26 N          61.9260   81.8040   14.8556 N.am    1  UNL1       -0.3288
     27 O          64.4121   81.5087   14.1613 O.2     1  UNL1       -0.2754
     28 H          61.1647   82.3899   15.0708 H       1  UNL1        0.1449
     29 H          61.8168   80.8259   14.8809 H       1  UNL1        0.1449
     30 C          59.9217   92.4682    3.4985 C.ar    1  UNL1        0.0384
     31 C          58.8642   92.2016    4.5284 C.ar    1  UNL1        0.1033
     32 N          59.2063   91.4407    5.7750 N.ar    1  UNL1       -0.2118
     33 C          60.6058   90.9465    5.9918 C.ar    1  UNL1        0.2241
     34 N          61.6633   91.2131    4.9619 N.ar    1  UNL1       -0.2118
     35 C          61.3213   91.9740    3.7153 C.ar    1  UNL1        0.1033
     36 C          58.8955   94.7509   -0.2413 C.ar    1  UNL1        0.1387
     37 C          58.4178   93.3394   -0.0693 C.ar    1  UNL1        0.0369
     38 C          58.7599   92.5785    1.1773 C.ar    1  UNL1        0.0032
     39 C          59.5796   93.2291    2.2519 C.ar    1  UNL1        0.0032
     40 C          60.0573   94.6406    2.0799 C.ar    1  UNL1        0.0032
     41 C          59.7152   95.4015    0.8333 C.ar    1  UNL1        0.0369
     42 C          58.0370   94.7834   -2.6932 C.3     1  UNL1        0.2525
     43 O          58.5535   95.5118   -1.4879 O.3     1  UNL1       -0.4714
@<TRIPOS>BOND
     1    42    43    1
     2    43    36    1
     3    36    37   ar
     4    37    38   ar
     5    38    39   ar
     6    39    30    1
     7    30    31   ar
     8    31    32   ar
     9    32    33   ar
    10    33     1    1
    11     1     2    1
    12     2     3    1
    13     3     4    1
    14     4     5   am
    15     5     6    2
    16     5     7   am
    17    15     7    1
    18    15    16    1
    19    16    17    1
    20    17    18    1
    21    18    19    1
    22    19    20    1
    23    20    21    1
    24    21    22    1
    25    22    25    1
    26    25    26   am
    27    25    27    2
    28    22    23    1
    29    22    24    1
    30     4     8    1
    31     8     9   ar
    32     9    10   ar
    33    10    11   ar
    34    11    12   ar
    35    12    13   ar
    36    33    34   ar
    37    34    35   ar
    38    39    40   ar
    39    40    41   ar
    40    41    36   ar
    41    35    30   ar
    42    13     1    1
    43    20    15    1
    44    13     8   ar
    45    24    16    1
    46    23    18    1
    47     7    14    1
    48    26    28    1
    49    26    29    1
@<TRIPOS>MOLECULE
*****
 43 49 0 0 0
SMALL
GASTEIGER

@<TRIPOS>ATOM
      1 N          62.3501   92.6487    1.3592 N.pl3   1  UNL1       -0.2543
      2 C          63.2197   92.0306    2.4135 C.3     1  UNL1        0.1203
      3 C          62.6016   91.4569    3.6540 C.3     1  UNL1        0.1216
      4 N          61.1138   91.5012    3.8401 N.am    1  UNL1       -0.2403
      5 C          60.4957   90.9275    5.0805 C.2     1  UNL1        0.3078
      6 O          59.0079   90.9719    5.2666 O.2     1  UNL1       -0.2522
      7 N          61.3653   90.3094    6.1349 N.am    1  UNL1       -0.2901
      8 C          60.2442   92.1193    2.7856 C.ar    1  UNL1        0.0690
      9 C          58.7565   92.1637    2.9717 C.ar    1  UNL1        0.0162
     10 C          57.8869   92.7818    1.9173 C.ar    1  UNL1        0.0014
     11 C          58.5050   93.3555    0.6769 C.ar    1  UNL1        0.0014
     12 C          59.9927   93.3111    0.4908 C.ar    1  UNL1        0.0162
     13 C          60.8623   92.6931    1.5452 C.ar    1  UNL1        0.0678
     14 H          62.3417   90.2803    6.0128 H       1  UNL1        0.1509
     15 C          60.7471   89.7357    7.3754 C.3     1  UNL1        0.0730
     16 C          61.3284   90.0568    8.7204 C.3     1  UNL1        0.0185
     17 C          60.1290   89.1620    8.6158 C.3     1  UNL1        0.0017
     18 C          59.5108   88.5882    9.8563 C.3     1  UNL1        0.0006
     19 C          58.9296   88.2672    8.5112 C.3     1  UNL1        0.0017
     20 C          59.5478   88.8409    7.2708 C.3     1  UNL1        0.0185
     21 C          60.2634   89.1021   10.4690 C.3     1  UNL1        0.0102
     22 C          61.2914   89.8041   11.3059 C.3     1  UNL1        0.0687
     23 C          60.0921   88.9093   11.2013 C.3     1  UNL1        0.0086
     24 C          61.9095   90.3778   10.0654 C.3     1  UNL1        0.0102
     25 C          61.8726   90.1251   12.6509 C.2     1  UNL1        0.2184
     26 N          63.0938   90.9901   12.7532 N.am    1  UNL1       -0.3288
     27 O          61.2326   89.5811   13.8937 O.2     1  UNL1       -0.2754
     28 H          63.5139   91.3471   11.9375 H       1  UNL1        0.1449
     29 H          63.4753   91.2008   13.6360 H       1  UNL1        0.1449
     30 C          64.2046   94.3699   -2.3622 C.ar    1  UNL1        0.0384
     31 C          64.7667   94.7157   -1.0152 C.ar    1  UNL1        0.1033
     32 N          64.1486   94.1419    0.2252 N.ar    1  UNL1       -0.2118
     33 C          62.9683   93.2224    0.1187 C.ar    1  UNL1        0.2241
     34 N          62.4061   92.8766   -1.2283 N.ar    1  UNL1       -0.2118
     35 C          63.0242   93.4503   -2.4688 C.ar    1  UNL1        0.1033
     36 C          66.0590   96.0911   -6.0836 C.ar    1  UNL1        0.1387
     37 C          66.1161   96.8560   -4.7944 C.ar    1  UNL1        0.0369
     38 C          65.4979   96.2822   -3.5540 C.ar    1  UNL1        0.0032
     39 C          64.8227   94.9436   -3.6027 C.ar    1  UNL1        0.0032
     40 C          64.7657   94.1788   -4.8917 C.ar    1  UNL1        0.0032
     41 C          65.3838   94.7525   -6.1322 C.ar    1  UNL1        0.0369
     42 C          68.1665   96.8164   -7.4187 C.3     1  UNL1        0.2525
     43 O          66.6772   96.6648   -7.3240 O.3     1  UNL1       -0.4714
@<TRIPOS>BOND
     1    42    43    1
     2    43    36    1
     3    36    37   ar
     4    37    38   ar
     5    38    39   ar
     6    39    30    1
     7    30    31   ar
     8    31    32   ar
     9    32    33   ar
    10    33     1    1
    11     1     2    1
    12     2     3    1
    13     3     4    1
    14     4     5   am
    15     5     6    2
    16     5     7   am
    17    15     7    1
    18    15    16    1
    19    16    17    1
    20    17    18    1
    21    18    19    1
    22    19    20    1
    23    20    21    1
    24    21    22    1
    25    22    25    1
    26    25    26   am
    27    25    27    2
    28    22    23    1
    29    22    24    1
    30     4     8    1
    31     8     9   ar
    32     9    10   ar
    33    10    11   ar
    34    11    12   ar
    35    12    13   ar
    36    33    34   ar
    37    34    35   ar
    38    39    40   ar
    39    40    41   ar
    40    41    36   ar
    41    35    30   ar
    42    13     1    1
    43    20    15    1
    44    13     8   ar
    45    24    16    1
    46    23    18    1
    47     7    14    1
    48    26    28    1
    49    26    29    1
@<TRIPOS>MOLECULE
*****
 43 49 0 0 0
SMALL
GASTEIGER

@<TRIPOS>ATOM
      1 N          60.0561   91.7824    3.4861 N.pl3   1  UNL1       -0.2543
      2 C          61.3696   91.3767    4.0862 C.3     1  UNL1        0.1203
      3 C          61.4025   90.6522    5.3992 C.3     1  UNL1        0.1216
      4 N          60.1219   90.3335    6.1122 N.am    1  UNL1       -0.2403
      5 C          60.1547   89.6090    7.4252 C.2     1  UNL1        0.3078
      6 O          58.8740   89.2903    8.1382 O.2     1  UNL1       -0.2522
      7 N          61.4682   89.2033    8.0253 N.am    1  UNL1       -0.2901
      8 C          58.8083   90.7393    5.5122 C.ar    1  UNL1        0.0690
      9 C          57.5277   90.4205    6.2252 C.ar    1  UNL1        0.0162
     10 C          56.2142   90.8263    5.6251 C.ar    1  UNL1        0.0014
     11 C          56.1814   91.5508    4.3121 C.ar    1  UNL1        0.0014
     12 C          57.4620   91.8695    3.5991 C.ar    1  UNL1        0.0162
     13 C          58.7754   91.4637    4.1991 C.ar    1  UNL1        0.0678
     14 H          62.3087   89.4124    7.5573 H       1  UNL1        0.1509
     15 C          61.5011   88.4788    9.3383 C.3     1  UNL1        0.0730
     16 C          62.0149   87.0711    9.4056 C.3     1  UNL1        0.0185
     17 C          61.5339   87.7543   10.6514 C.3     1  UNL1        0.0017
     18 C          61.5668   87.0298   11.9644 C.3     1  UNL1        0.0006
     19 C          61.0530   88.4374   11.8971 C.3     1  UNL1        0.0017
     20 C          61.0201   89.1619   10.5841 C.3     1  UNL1        0.0185
     21 C          61.9873   86.1462   11.4663 C.3     1  UNL1        0.0102
     22 C          62.5616   84.9390   10.7859 C.3     1  UNL1        0.0687
     23 C          62.0807   85.6222   12.0316 C.3     1  UNL1        0.0086
     24 C          62.5288   85.6635    9.4728 C.3     1  UNL1        0.0102
     25 C          63.0755   83.5314   10.8532 C.2     1  UNL1        0.2184
     26 N          64.1390   83.0748    9.8989 N.am    1  UNL1       -0.3288
     27 O          62.5258   82.5804   11.8747 O.2     1  UNL1       -0.2754
     28 H          64.4997   83.6990    9.2285 H       1  UNL1        0.1449
     29 H          64.4762   82.1509    9.9431 H       1  UNL1        0.1449
     30 C          59.9576   93.9558   -0.4530 C.ar    1  UNL1        0.0384
     31 C          60.1945   92.4751   -0.4191 C.ar    1  UNL1        0.1033
     32 N          60.2273   91.7506    0.8939 N.ar    1  UNL1       -0.2118
     33 C          60.0233   92.5069    2.1731 C.ar    1  UNL1        0.2241
     34 N          59.7864   93.9877    2.1393 N.ar    1  UNL1       -0.2118
     35 C          59.7535   94.7122    0.8263 C.ar    1  UNL1        0.1033
     36 C          59.8590   96.1292   -4.3921 C.ar    1  UNL1        0.1387
     37 C          59.2837   96.7733   -3.1655 C.ar    1  UNL1        0.0369
     38 C          59.3166   96.0488   -1.8525 C.ar    1  UNL1        0.0032
     39 C          59.9247   94.6803   -1.7660 C.ar    1  UNL1        0.0032
     40 C          60.4999   94.0363   -2.9925 C.ar    1  UNL1        0.0032
     41 C          60.4670   94.7608   -4.3056 C.ar    1  UNL1        0.0369
     42 C          60.8490   96.5448   -6.7579 C.3     1  UNL1        0.2525
     43 O          59.8261   96.8537   -5.7051 O.3     1  UNL1       -0.4714
@<TRIPOS>BOND
     1    42    43    1
     2    43    36    1
     3    36    37   ar
     4    37    38   ar
     5    38    39   ar
     6    39    30    1
     7    30    31   ar
     8    31    32   ar
     9    32    33   ar
    10    33     1    1
    11     1     2    1
    12     2     3    1
    13     3     4    1
    14     4     5   am
    15     5     6    2
    16     5     7   am
    17    15     7    1
    18    15    16    1
    19    16    17    1
    20    17    18    1
    21    18    19    1
    22    19    20    1
    23    20    21    1
    24    21    22    1
    25    22    25    1
    26    25    26   am
    27    25    27    2
    28    22    23    1
    29    22    24    1
    30     4     8    1
    31     8     9   ar
    32     9    10   ar
    33    10    11   ar
    34    11    12   ar
    35    12    13   ar
    36    33    34   ar
    37    34    35   ar
    38    39    40   ar
    39    40    41   ar
    40    41    36   ar
    41    35    30   ar
    42    13     1    1
    43    20    15    1
    44    13     8   ar
    45    24    16    1
    46    23    18    1
    47     7    14    1
    48    26    28    1
    49    26    29    1
