@<TRIPOS>MOLECULE
*****
 31 33 0 0 0
SMALL
GASTEIGER

@<TRIPOS>ATOM
      1 C          62.5957   89.6835   11.8915 C.ar    1  UNL1        0.1681
      2 C          63.5655   89.8011   13.0298 C.ar    1  UNL1        0.0702
      3 C          64.6429   90.8441   12.9923 C.ar    1  UNL1        0.1620
      4 F          65.6127   90.9617   14.1306 F       1  UNL1       -0.2026
      5 C          64.7505   91.7693   11.8166 C.ar    1  UNL1        0.1549
      6 C          63.7807   91.6517   10.6784 C.ar    1  UNL1        0.0553
      7 C          62.7033   90.6088   10.7158 C.ar    1  UNL1        0.1753
      8 F          61.7335   90.4911    9.5775 F       1  UNL1       -0.2009
      9 S          65.8280   92.8123   11.7793 S.O2    1  UNL1        0.0773
     10 O          66.2278   92.3501   10.4094 O.2     1  UNL1       -0.1498
     11 O          65.4282   93.2745   13.1491 O.2     1  UNL1       -0.1498
     12 N          66.9054   93.8552   11.7418 N.pl3   1  UNL1       -0.1925
     13 H          67.6287   93.8399   12.4095 H       1  UNL1        0.1758
     14 C          66.8808   94.9215   10.6870 C.ar    1  UNL1        0.1977
     15 N          67.8633   95.0734    9.5638 N.ar    1  UNL1       -0.1997
     16 C          67.4591   96.2688    8.7529 C.ar    1  UNL1        0.2082
     17 N          66.2268   96.8558    9.3750 N.ar    1  UNL1       -0.1840
     18 S          65.8694   96.0231   10.5704 S.2     1  UNL1        0.0508
     19 O          61.5182   88.6405   11.9289 O.3     1  UNL1       -0.4731
     20 C          61.3791   87.6650   10.7980 C.3     1  UNL1        0.2055
     21 C          61.2765   86.1959   11.0830 C.3     1  UNL1        0.0473
     22 C          61.9089   85.9394    9.2794 C.3     1  UNL1        0.0001
     23 C          62.3154   85.2542   10.5504 C.3     1  UNL1        0.0037
     24 C          62.3610   84.8960   12.0062 C.3     1  UNL1        0.0015
     25 C          63.3045   83.8341   12.4881 C.3     1  UNL1        0.0155
     26 C          64.2023   83.1303   11.5141 C.3     1  UNL1        0.0508
     27 N          65.1457   82.0684   11.9960 N.3     1  UNL1       -0.3222
     28 C          64.1566   83.4885   10.0582 C.3     1  UNL1        0.0155
     29 C          63.2132   84.5504    9.5763 C.3     1  UNL1        0.0015
     30 H          65.0441   81.9556   13.0046 H       1  UNL1        0.1188
     31 H          66.1043   82.3414   11.7792 H       1  UNL1        0.1188
@<TRIPOS>BOND
     1    23    22    1
     2    23    21    1
     3    21    20    1
     4    20    19    1
     5    19     1    1
     6     1     2   ar
     7     2     3   ar
     8     3     4    1
     9     3     5   ar
    10     5     9    1
    11     9    10    2
    12     9    11    2
    13     9    12    1
    14    12    14    1
    15    14    15   ar
    16    15    16   ar
    17    16    17   ar
    18    17    18   ar
    19     5     6   ar
    20     6     7   ar
    21     7     8    1
    22    23    24    1
    23    24    25    1
    24    25    26    1
    25    26    27    1
    26    26    28    1
    27    28    29    1
    28    29    23    1
    29     7     1   ar
    30    18    14   ar
    31    12    13    1
    32    27    30    1
    33    27    31    1
@<TRIPOS>MOLECULE
*****
 31 33 0 0 0
SMALL
GASTEIGER

@<TRIPOS>ATOM
      1 C          61.7927   88.5218   10.9623 C.ar    1  UNL1        0.1681
      2 C          62.7055   88.4415   12.1498 C.ar    1  UNL1        0.0702
      3 C          63.6120   89.5906   12.4780 C.ar    1  UNL1        0.1620
      4 F          64.5249   89.5103   13.6656 F       1  UNL1       -0.2026
      5 C          63.6057   90.8200   11.6187 C.ar    1  UNL1        0.1549
      6 C          62.6928   90.9004   10.4312 C.ar    1  UNL1        0.0553
      7 C          61.7863   89.7512   10.1030 C.ar    1  UNL1        0.1753
      8 F          60.8734   89.8315    8.9154 F       1  UNL1       -0.2009
      9 S          64.5122   91.9692   11.9469 S.O2    1  UNL1        0.0773
     10 O          65.0250   91.9672   10.5373 O.2     1  UNL1       -0.1498
     11 O          63.9995   91.9711   13.3565 O.2     1  UNL1       -0.1498
     12 N          65.4188   93.1183   12.2751 N.pl3   1  UNL1       -0.1925
     13 H          65.3723   93.9482   11.7475 H       1  UNL1        0.1758
     14 C          66.3961   93.0030   13.4071 C.ar    1  UNL1        0.1977
     15 N          66.4540   93.8894   14.6158 N.ar    1  UNL1       -0.1997
     16 C          67.5808   93.4153   15.4849 C.ar    1  UNL1        0.2082
     17 N          68.2195   92.2357   14.8134 N.ar    1  UNL1       -0.1840
     18 S          67.4872   91.9809   13.5292 S.2     1  UNL1        0.0508
     19 O          60.8861   87.3726   10.6341 O.3     1  UNL1       -0.4731
     20 C          61.3079   85.9693   10.9545 C.3     1  UNL1        0.2055
     21 C          62.5097   85.3752   10.2815 C.3     1  UNL1        0.0473
     22 C          63.6118   84.0185    9.4670 C.3     1  UNL1        0.0001
     23 C          63.2146   84.2052   10.9014 C.3     1  UNL1        0.0037
     24 C          62.5726   84.7983   12.1204 C.3     1  UNL1        0.0015
     25 C          62.7734   84.1566   13.4612 C.3     1  UNL1        0.0155
     26 C          63.6163   82.9217   13.5830 C.3     1  UNL1        0.0508
     27 N          63.8171   82.2800   14.9239 N.3     1  UNL1       -0.3222
     28 C          64.2583   82.3287   12.3640 C.3     1  UNL1        0.0155
     29 C          64.0575   82.9704   11.0232 C.3     1  UNL1        0.0015
     30 H          63.3130   82.8111   15.6339 H       1  UNL1        0.1188
     31 H          64.8117   82.2688   15.1499 H       1  UNL1        0.1188
@<TRIPOS>BOND
     1    23    22    1
     2    23    21    1
     3    21    20    1
     4    20    19    1
     5    19     1    1
     6     1     2   ar
     7     2     3   ar
     8     3     4    1
     9     3     5   ar
    10     5     9    1
    11     9    10    2
    12     9    11    2
    13     9    12    1
    14    12    14    1
    15    14    15   ar
    16    15    16   ar
    17    16    17   ar
    18    17    18   ar
    19     5     6   ar
    20     6     7   ar
    21     7     8    1
    22    23    24    1
    23    24    25    1
    24    25    26    1
    25    26    27    1
    26    26    28    1
    27    28    29    1
    28    29    23    1
    29     7     1   ar
    30    18    14   ar
    31    12    13    1
    32    27    30    1
    33    27    31    1
@<TRIPOS>MOLECULE
*****
 31 33 0 0 0
SMALL
GASTEIGER

@<TRIPOS>ATOM
      1 C          62.9059   89.4526   12.0659 C.ar    1  UNL1        0.1681
      2 C          62.8934   90.4363   10.9337 C.ar    1  UNL1        0.0702
      3 C          63.8504   91.5913   10.9331 C.ar    1  UNL1        0.1620
      4 F          63.8379   92.5751    9.8008 F       1  UNL1       -0.2026
      5 C          64.8198   91.7627   12.0649 C.ar    1  UNL1        0.1549
      6 C          64.8323   90.7790   13.1971 C.ar    1  UNL1        0.0553
      7 C          63.8753   89.6239   13.1977 C.ar    1  UNL1        0.1753
      8 F          63.8877   88.6401   14.3300 F       1  UNL1       -0.2009
      9 S          65.7768   92.9178   12.0643 S.O2    1  UNL1        0.0773
     10 O          65.4132   93.2197   13.4878 O.2     1  UNL1       -0.1498
     11 O          66.1404   92.6159   10.6407 O.2     1  UNL1       -0.1498
     12 N          66.7337   94.0729   12.0637 N.pl3   1  UNL1       -0.1925
     13 H          67.3461   94.2052   12.8232 H       1  UNL1        0.1758
     14 C          66.7577   95.0264   10.9060 C.ar    1  UNL1        0.1977
     15 N          67.7302   95.0027    9.7642 N.ar    1  UNL1       -0.1997
     16 C          67.3870   96.1327    8.8394 C.ar    1  UNL1        0.2082
     17 N          66.2023   96.8549    9.4097 N.ar    1  UNL1       -0.1840
     18 S          65.8134   96.1711   10.6870 S.2     1  UNL1        0.0508
     19 O          61.9489   88.2975   12.0665 O.3     1  UNL1       -0.4731
     20 C          61.4897   87.7033   10.7681 C.3     1  UNL1        0.2055
     21 C          61.2141   86.2319   10.6724 C.3     1  UNL1        0.0473
     22 C          61.9919   85.9329    8.9334 C.3     1  UNL1        0.0001
     23 C          62.3037   85.2905   10.2526 C.3     1  UNL1        0.0037
     24 C          62.2371   84.9751   11.7175 C.3     1  UNL1        0.0015
     25 C          63.1518   83.9413   12.3044 C.3     1  UNL1        0.0155
     26 C          64.1333   83.2230   11.4265 C.3     1  UNL1        0.0508
     27 N          65.0480   82.1892   12.0135 N.3     1  UNL1       -0.3222
     28 C          64.1999   83.5384    9.9616 C.3     1  UNL1        0.0155
     29 C          63.2852   84.5722    9.3746 C.3     1  UNL1        0.0015
     30 H          64.8674   82.1041   13.0137 H       1  UNL1        0.1188
     31 H          66.0175   82.4698   11.8657 H       1  UNL1        0.1188
@<TRIPOS>BOND
     1    23    22    1
     2    23    21    1
     3    21    20    1
     4    20    19    1
     5    19     1    1
     6     1     2   ar
     7     2     3   ar
     8     3     4    1
     9     3     5   ar
    10     5     9    1
    11     9    10    2
    12     9    11    2
    13     9    12    1
    14    12    14    1
    15    14    15   ar
    16    15    16   ar
    17    16    17   ar
    18    17    18   ar
    19     5     6   ar
    20     6     7   ar
    21     7     8    1
    22    23    24    1
    23    24    25    1
    24    25    26    1
    25    26    27    1
    26    26    28    1
    27    28    29    1
    28    29    23    1
    29     7     1   ar
    30    18    14   ar
    31    12    13    1
    32    27    30    1
    33    27    31    1
@<TRIPOS>MOLECULE
*****
 31 33 0 0 0
SMALL
GASTEIGER

@<TRIPOS>ATOM
      1 C          62.7248   89.2306   11.0932 C.ar    1  UNL1        0.1681
      2 C          63.0707   88.4092   12.2997 C.ar    1  UNL1        0.0702
      3 C          63.7394   89.0524   13.4782 C.ar    1  UNL1        0.1620
      4 F          64.0854   88.2310   14.6848 F       1  UNL1       -0.2026
      5 C          64.0623   90.5170   13.4503 C.ar    1  UNL1        0.1549
      6 C          63.7163   91.3384   12.2439 C.ar    1  UNL1        0.0553
      7 C          63.0476   90.6952   11.0653 C.ar    1  UNL1        0.1753
      8 F          62.7016   91.5166    9.8588 F       1  UNL1       -0.2009
      9 S          64.7311   91.1602   14.6290 S.O2    1  UNL1        0.0773
     10 O          63.3969   91.3307   15.2929 O.2     1  UNL1       -0.1498
     11 O          66.0652   90.9897   13.9650 O.2     1  UNL1       -0.1498
     12 N          65.3998   91.8034   15.8076 N.pl3   1  UNL1       -0.1925
     13 H          64.9552   91.8038   16.6860 H       1  UNL1        0.1758
     14 C          66.7458   92.4458   15.6478 C.ar    1  UNL1        0.1977
     15 N          68.0113   92.0235   16.3335 N.ar    1  UNL1       -0.1997
     16 C          69.1103   92.9401   15.8838 C.ar    1  UNL1        0.2082
     17 N          68.5240   93.9288   14.9201 N.ar    1  UNL1       -0.1840
     18 S          67.0626   93.6233   14.7743 S.2     1  UNL1        0.0508
     19 O          62.0560   88.5874    9.9146 O.3     1  UNL1       -0.4731
     20 C          62.5381   87.2592    9.4113 C.3     1  UNL1        0.2055
     21 C          61.9820   85.9915    9.9891 C.3     1  UNL1        0.0473
     22 C          63.0670   85.1254    8.6506 C.3     1  UNL1        0.0001
     23 C          62.8479   84.7710   10.0917 C.3     1  UNL1        0.0037
     24 C          62.3281   84.8405   11.4969 C.3     1  UNL1        0.0015
     25 C          62.7503   83.8125   12.5044 C.3     1  UNL1        0.0155
     26 C          63.6923   82.7151   12.1066 C.3     1  UNL1        0.0508
     27 N          64.1145   81.6871   13.1141 N.3     1  UNL1       -0.3222
     28 C          64.2122   82.6456   10.7013 C.3     1  UNL1        0.0155
     29 C          63.7900   83.6735    9.6938 C.3     1  UNL1        0.0015
     30 H          63.6691   81.8861   14.0099 H       1  UNL1        0.1188
     31 H          65.1281   81.7156   13.2246 H       1  UNL1        0.1188
@<TRIPOS>BOND
     1    23    22    1
     2    23    21    1
     3    21    20    1
     4    20    19    1
     5    19     1    1
     6     1     2   ar
     7     2     3   ar
     8     3     4    1
     9     3     5   ar
    10     5     9    1
    11     9    10    2
    12     9    11    2
    13     9    12    1
    14    12    14    1
    15    14    15   ar
    16    15    16   ar
    17    16    17   ar
    18    17    18   ar
    19     5     6   ar
    20     6     7   ar
    21     7     8    1
    22    23    24    1
    23    24    25    1
    24    25    26    1
    25    26    27    1
    26    26    28    1
    27    28    29    1
    28    29    23    1
    29     7     1   ar
    30    18    14   ar
    31    12    13    1
    32    27    30    1
    33    27    31    1
@<TRIPOS>MOLECULE
*****
 31 33 0 0 0
SMALL
GASTEIGER

@<TRIPOS>ATOM
      1 C          62.9254   88.4326   11.7949 C.ar    1  UNL1        0.1681
      2 C          63.7036   88.3695   13.0757 C.ar    1  UNL1        0.0702
      3 C          63.8974   87.0548   13.7715 C.ar    1  UNL1        0.1620
      4 F          64.6756   86.9917   15.0524 F       1  UNL1       -0.2026
      5 C          63.3132   85.8033   13.1864 C.ar    1  UNL1        0.1549
      6 C          62.5351   85.8664   11.9056 C.ar    1  UNL1        0.0553
      7 C          62.3412   87.1810   11.2099 C.ar    1  UNL1        0.1753
      8 F          61.5630   87.2442    9.9290 F       1  UNL1       -0.2009
      9 S          63.5071   84.4886   13.8822 S.O2    1  UNL1        0.0773
     10 O          62.4751   84.8751   14.8999 O.2     1  UNL1       -0.1498
     11 O          64.5390   84.1022   12.8646 O.2     1  UNL1       -0.1498
     12 N          63.7010   83.1740   14.5780 N.pl3   1  UNL1       -0.1925
     13 H          64.3706   83.0905   15.2949 H       1  UNL1        0.1758
     14 C          62.8746   81.9865   14.1816 C.ar    1  UNL1        0.1977
     15 N          61.4316   81.7625   14.5244 N.ar    1  UNL1       -0.1997
     16 C          61.0114   80.4522   13.9274 C.ar    1  UNL1        0.2082
     17 N          62.1947   79.8663   13.2157 N.ar    1  UNL1       -0.1840
     18 S          63.3463   80.8146   13.3728 S.2     1  UNL1        0.0508
     19 O          62.7315   89.7473   11.0991 O.3     1  UNL1       -0.4731
     20 C          63.2412   91.0105   11.7271 C.3     1  UNL1        0.2055
     21 C          64.4886   91.6583   11.2030 C.3     1  UNL1        0.0473
     22 C          65.4584   93.2738   10.7925 C.3     1  UNL1        0.0001
     23 C          65.3043   92.5463   12.0953 C.3     1  UNL1        0.0037
     24 C          64.8668   91.5104   13.0880 C.3     1  UNL1        0.0015
     25 C          65.2986   91.6151   14.5207 C.3     1  UNL1        0.0155
     26 C          66.1678   92.7558   14.9606 C.3     1  UNL1        0.0508
     27 N          66.5996   92.8605   16.3933 N.3     1  UNL1       -0.3222
     28 C          66.6053   93.7916   13.9678 C.3     1  UNL1        0.0155
     29 C          66.1735   93.6869   12.5352 C.3     1  UNL1        0.0015
     30 H          66.2138   92.0786   16.9227 H       1  UNL1        0.1188
     31 H          66.2606   93.7381   16.7873 H       1  UNL1        0.1188
@<TRIPOS>BOND
     1    23    22    1
     2    23    21    1
     3    21    20    1
     4    20    19    1
     5    19     1    1
     6     1     2   ar
     7     2     3   ar
     8     3     4    1
     9     3     5   ar
    10     5     9    1
    11     9    10    2
    12     9    11    2
    13     9    12    1
    14    12    14    1
    15    14    15   ar
    16    15    16   ar
    17    16    17   ar
    18    17    18   ar
    19     5     6   ar
    20     6     7   ar
    21     7     8    1
    22    23    24    1
    23    24    25    1
    24    25    26    1
    25    26    27    1
    26    26    28    1
    27    28    29    1
    28    29    23    1
    29     7     1   ar
    30    18    14   ar
    31    12    13    1
    32    27    30    1
    33    27    31    1
@<TRIPOS>MOLECULE
*****
 31 33 0 0 0
SMALL
GASTEIGER

@<TRIPOS>ATOM
      1 C          63.7179   89.7485   15.6869 C.ar    1  UNL1        0.1681
      2 C          63.2084   88.9798   16.8699 C.ar    1  UNL1        0.0702
      3 C          63.1929   87.4802   16.8397 C.ar    1  UNL1        0.1620
      4 F          62.6834   86.7114   18.0226 F       1  UNL1       -0.2026
      5 C          63.6871   86.7493   15.6265 C.ar    1  UNL1        0.1549
      6 C          64.1966   87.5180   14.4436 C.ar    1  UNL1        0.0553
      7 C          64.2120   89.0176   14.4738 C.ar    1  UNL1        0.1753
      8 F          64.7216   89.7865   13.2908 F       1  UNL1       -0.2009
      9 S          63.6716   85.2496   15.5964 S.O2    1  UNL1        0.0773
     10 O          62.2331   85.2560   16.0213 O.2     1  UNL1       -0.1498
     11 O          65.1101   85.2433   15.1715 O.2     1  UNL1       -0.1498
     12 N          63.6561   83.7501   15.5662 N.pl3   1  UNL1       -0.1925
     13 H          63.8510   83.2392   16.3849 H       1  UNL1        0.1758
     14 C          63.3437   83.0287   14.2886 C.ar    1  UNL1        0.1977
     15 N          63.4177   81.5463   14.0723 N.ar    1  UNL1       -0.1997
     16 C          63.0222   81.2646   12.6531 C.ar    1  UNL1        0.2082
     17 N          62.7038   82.5731   11.9922 N.ar    1  UNL1       -0.1840
     18 S          62.9025   83.6634   13.0031 S.2     1  UNL1        0.0508
     19 O          63.7333   91.2482   15.7171 O.3     1  UNL1       -0.4731
     20 C          65.0230   91.9805   15.9414 C.3     1  UNL1        0.2055
     21 C          65.5971   92.8389   14.8534 C.3     1  UNL1        0.0473
     22 C          67.2413   92.0090   15.4249 C.3     1  UNL1        0.0001
     23 C          66.7604   92.3464   14.0446 C.3     1  UNL1        0.0037
     24 C          65.8755   92.8548   12.9454 C.3     1  UNL1        0.0015
     25 C          66.3208   92.7536   11.5166 C.3     1  UNL1        0.0155
     26 C          67.6512   92.1438   11.1872 C.3     1  UNL1        0.0508
     27 N          68.0965   92.0426    9.7584 N.3     1  UNL1       -0.3222
     28 C          68.5361   91.6354   12.2864 C.3     1  UNL1        0.0155
     29 C          68.0907   91.7367   13.7152 C.3     1  UNL1        0.0015
     30 H          67.3775   92.4335    9.1496 H       1  UNL1        0.1188
     31 H          68.2494   91.0631    9.5185 H       1  UNL1        0.1188
@<TRIPOS>BOND
     1    23    22    1
     2    23    21    1
     3    21    20    1
     4    20    19    1
     5    19     1    1
     6     1     2   ar
     7     2     3   ar
     8     3     4    1
     9     3     5   ar
    10     5     9    1
    11     9    10    2
    12     9    11    2
    13     9    12    1
    14    12    14    1
    15    14    15   ar
    16    15    16   ar
    17    16    17   ar
    18    17    18   ar
    19     5     6   ar
    20     6     7   ar
    21     7     8    1
    22    23    24    1
    23    24    25    1
    24    25    26    1
    25    26    27    1
    26    26    28    1
    27    28    29    1
    28    29    23    1
    29     7     1   ar
    30    18    14   ar
    31    12    13    1
    32    27    30    1
    33    27    31    1
@<TRIPOS>MOLECULE
*****
 31 33 0 0 0
SMALL
GASTEIGER

@<TRIPOS>ATOM
      1 C          62.8132   89.2688   11.9688 C.ar    1  UNL1        0.1681
      2 C          62.7826   90.2801   10.8615 C.ar    1  UNL1        0.0702
      3 C          63.7303   91.4427   10.8812 C.ar    1  UNL1        0.1620
      4 F          63.6998   92.4541    9.7739 F       1  UNL1       -0.2026
      5 C          64.7084   91.5939   12.0083 C.ar    1  UNL1        0.1549
      6 C          64.7390   90.5825   13.1156 C.ar    1  UNL1        0.0553
      7 C          63.7913   89.4200   13.0959 C.ar    1  UNL1        0.1753
      8 F          63.8218   88.4085   14.2032 F       1  UNL1       -0.2009
      9 S          65.6561   92.7565   12.0280 S.O2    1  UNL1        0.0773
     10 O          65.2252   93.0839   13.4270 O.2     1  UNL1       -0.1498
     11 O          66.0871   92.4290   10.6291 O.2     1  UNL1       -0.1498
     12 N          66.6037   93.9190   12.0478 N.pl3   1  UNL1       -0.1925
     13 H          67.1853   94.0668   12.8283 H       1  UNL1        0.1758
     14 C          66.6652   94.8565   10.8784 C.ar    1  UNL1        0.1977
     15 N          67.7198   94.8675    9.8118 N.ar    1  UNL1       -0.1997
     16 C          67.3893   95.9653    8.8445 C.ar    1  UNL1        0.2082
     17 N          66.1304   96.6328    9.3133 N.ar    1  UNL1       -0.1840
     18 S          65.6829   95.9474   10.5704 S.2     1  UNL1        0.0508
     19 O          61.8655   88.1062   11.9490 O.3     1  UNL1       -0.4731
     20 C          62.3277   86.7702   11.4475 C.3     1  UNL1        0.2055
     21 C          62.9645   85.7939   12.3916 C.3     1  UNL1        0.0473
     22 C          62.6665   84.8565   10.7330 C.3     1  UNL1        0.0001
     23 C          62.8793   84.3216   12.1182 C.3     1  UNL1        0.0037
     24 C          63.1217   84.2980   13.5982 C.3     1  UNL1        0.0015
     25 C          63.2050   82.9879   14.3238 C.3     1  UNL1        0.0155
     26 C          63.0459   81.7012   13.5693 C.3     1  UNL1        0.0508
     27 N          63.1292   80.3911   14.2949 N.3     1  UNL1       -0.3222
     28 C          62.8035   81.7248   12.0893 C.3     1  UNL1        0.0155
     29 C          62.7202   83.0349   11.3636 C.3     1  UNL1        0.0015
     30 H          63.2967   80.5616   15.2865 H       1  UNL1        0.1188
     31 H          63.8953   79.8378   13.9109 H       1  UNL1        0.1188
@<TRIPOS>BOND
     1    23    22    1
     2    23    21    1
     3    21    20    1
     4    20    19    1
     5    19     1    1
     6     1     2   ar
     7     2     3   ar
     8     3     4    1
     9     3     5   ar
    10     5     9    1
    11     9    10    2
    12     9    11    2
    13     9    12    1
    14    12    14    1
    15    14    15   ar
    16    15    16   ar
    17    16    17   ar
    18    17    18   ar
    19     5     6   ar
    20     6     7   ar
    21     7     8    1
    22    23    24    1
    23    24    25    1
    24    25    26    1
    25    26    27    1
    26    26    28    1
    27    28    29    1
    28    29    23    1
    29     7     1   ar
    30    18    14   ar
    31    12    13    1
    32    27    30    1
    33    27    31    1
@<TRIPOS>MOLECULE
*****
 31 33 0 0 0
SMALL
GASTEIGER

@<TRIPOS>ATOM
      1 C          63.8784   88.0709   15.7079 C.ar    1  UNL1        0.1681
      2 C          64.1987   87.3641   14.4243 C.ar    1  UNL1        0.0702
      3 C          63.9117   85.8986   14.2833 C.ar    1  UNL1        0.1620
      4 F          64.2320   85.1917   12.9996 F       1  UNL1       -0.2026
      5 C          63.3043   85.1400   15.4259 C.ar    1  UNL1        0.1549
      6 C          62.9839   85.8468   16.7095 C.ar    1  UNL1        0.0553
      7 C          63.2710   87.3123   16.8505 C.ar    1  UNL1        0.1753
      8 F          62.9506   88.0192   18.1342 F       1  UNL1       -0.2009
      9 S          63.0173   83.6744   15.2848 S.O2    1  UNL1        0.0773
     10 O          64.4672   83.3682   15.5169 O.2     1  UNL1       -0.1498
     11 O          61.5673   83.9807   15.0528 O.2     1  UNL1       -0.1498
     12 N          62.7303   82.2089   15.1438 N.pl3   1  UNL1       -0.1925
     13 H          62.5192   81.6698   15.9400 H       1  UNL1        0.1758
     14 C          62.7649   81.5648   13.7895 C.ar    1  UNL1        0.1977
     15 N          63.0899   82.2500   12.4953 N.ar    1  UNL1       -0.1997
     16 C          63.0065   81.2311   11.3977 C.ar    1  UNL1        0.2082
     17 N          62.6298   79.9161   12.0135 N.ar    1  UNL1       -0.1840
     18 S          62.4805   80.1224   13.4918 S.2     1  UNL1        0.0508
     19 O          64.1654   89.5365   15.8490 O.3     1  UNL1       -0.4731
     20 C          63.7221   90.4936   14.7825 C.3     1  UNL1        0.2055
     21 C          64.7092   91.0031   13.7745 C.3     1  UNL1        0.0473
     22 C          65.4313   92.2172   12.4617 C.3     1  UNL1        0.0001
     23 C          64.2714   91.2710   12.3651 C.3     1  UNL1        0.0037
     24 C          63.2635   90.2318   12.7579 C.3     1  UNL1        0.0015
     25 C          62.2206   89.7891   11.7749 C.3     1  UNL1        0.0155
     26 C          62.1856   90.3855   10.3990 C.3     1  UNL1        0.0508
     27 N          61.1427   89.9428    9.4160 N.3     1  UNL1       -0.3222
     28 C          63.1934   91.4247   10.0062 C.3     1  UNL1        0.0155
     29 C          64.2363   91.8674   10.9892 C.3     1  UNL1        0.0015
     30 H          60.5463   89.2370    9.8478 H       1  UNL1        0.1188
     31 H          61.5973   89.5466    8.5933 H       1  UNL1        0.1188
@<TRIPOS>BOND
     1    23    22    1
     2    23    21    1
     3    21    20    1
     4    20    19    1
     5    19     1    1
     6     1     2   ar
     7     2     3   ar
     8     3     4    1
     9     3     5   ar
    10     5     9    1
    11     9    10    2
    12     9    11    2
    13     9    12    1
    14    12    14    1
    15    14    15   ar
    16    15    16   ar
    17    16    17   ar
    18    17    18   ar
    19     5     6   ar
    20     6     7   ar
    21     7     8    1
    22    23    24    1
    23    24    25    1
    24    25    26    1
    25    26    27    1
    26    26    28    1
    27    28    29    1
    28    29    23    1
    29     7     1   ar
    30    18    14   ar
    31    12    13    1
    32    27    30    1
    33    27    31    1
@<TRIPOS>MOLECULE
*****
 31 33 0 0 0
SMALL
GASTEIGER

@<TRIPOS>ATOM
      1 C          63.6898   88.0597   15.8568 C.ar    1  UNL1        0.1681
      2 C          64.0149   87.4376   14.5312 C.ar    1  UNL1        0.0702
      3 C          63.8242   85.9638   14.3274 C.ar    1  UNL1        0.1620
      4 F          64.1492   85.3417   13.0017 F       1  UNL1       -0.2026
      5 C          63.3084   85.1121   15.4493 C.ar    1  UNL1        0.1549
      6 C          62.9833   85.7342   16.7749 C.ar    1  UNL1        0.0553
      7 C          63.1740   87.2080   16.9787 C.ar    1  UNL1        0.1753
      8 F          62.8490   87.8301   18.3043 F       1  UNL1       -0.2009
      9 S          63.1177   83.6383   15.2455 S.O2    1  UNL1        0.0773
     10 O          64.5902   83.4220   15.4321 O.2     1  UNL1       -0.1498
     11 O          61.6452   83.8546   15.0589 O.2     1  UNL1       -0.1498
     12 N          62.9270   82.1645   15.0417 N.pl3   1  UNL1       -0.1925
     13 H          62.8050   81.5719   15.8183 H       1  UNL1        0.1758
     14 C          62.9224   81.5936   13.6545 C.ar    1  UNL1        0.1977
     15 N          63.2790   82.3294   12.3970 N.ar    1  UNL1       -0.1997
     16 C          63.1372   81.3771   11.2467 C.ar    1  UNL1        0.2082
     17 N          62.6930   80.0527   11.7934 N.ar    1  UNL1       -0.1840
     18 S          62.5602   80.1865   13.2816 S.2     1  UNL1        0.0508
     19 O          63.8805   89.5335   16.0606 O.3     1  UNL1       -0.4731
     20 C          63.7654   90.4727   14.8967 C.3     1  UNL1        0.2055
     21 C          64.9791   91.1974   14.3949 C.3     1  UNL1        0.0473
     22 C          63.9997   90.6527   12.8255 C.3     1  UNL1        0.0001
     23 C          64.9950   91.7606   13.0047 C.3     1  UNL1        0.0037
     24 C          65.9847   92.6729   13.6667 C.3     1  UNL1        0.0015
     25 C          66.6446   93.7636   12.8763 C.3     1  UNL1        0.0155
     26 C          66.3148   93.9421   11.4239 C.3     1  UNL1        0.0508
     27 N          66.9748   95.0329   10.6335 N.3     1  UNL1       -0.3222
     28 C          65.3251   93.0299   10.7619 C.3     1  UNL1        0.0155
     29 C          64.6652   91.9391   11.5523 C.3     1  UNL1        0.0015
     30 H          67.6128   95.5517   11.2370 H       1  UNL1        0.1188
     31 H          66.2634   95.6654   10.2672 H       1  UNL1        0.1188
@<TRIPOS>BOND
     1    23    22    1
     2    23    21    1
     3    21    20    1
     4    20    19    1
     5    19     1    1
     6     1     2   ar
     7     2     3   ar
     8     3     4    1
     9     3     5   ar
    10     5     9    1
    11     9    10    2
    12     9    11    2
    13     9    12    1
    14    12    14    1
    15    14    15   ar
    16    15    16   ar
    17    16    17   ar
    18    17    18   ar
    19     5     6   ar
    20     6     7   ar
    21     7     8    1
    22    23    24    1
    23    24    25    1
    24    25    26    1
    25    26    27    1
    26    26    28    1
    27    28    29    1
    28    29    23    1
    29     7     1   ar
    30    18    14   ar
    31    12    13    1
    32    27    30    1
    33    27    31    1
