@<TRIPOS>MOLECULE
*****
 38 42 0 0 0
SMALL
GASTEIGER

@<TRIPOS>ATOM
      1 N          63.5192   86.0250   13.0046 N.ar    1  UNL1       -0.3063
      2 C          62.8651   85.1415   11.9841 C.ar    1  UNL1        0.1240
      3 C          62.2218   86.0212   10.9534 C.ar    1  UNL1        0.1156
      4 C          62.4783   87.4485   11.3370 C.ar    1  UNL1        0.0966
      5 C          63.2801   87.4508   12.6047 C.ar    1  UNL1        0.1349
      6 C          63.6890   88.7510   13.2312 C.ar    1  UNL1        0.2819
      7 O          64.4908   88.7533   14.4988 O.2     1  UNL1       -0.2652
      8 N          63.2961   90.0488   12.5899 N.ar    1  UNL1       -0.2417
      9 C          62.4943   90.0464   11.3221 C.ar    1  UNL1        0.3342
     10 O          62.1013   91.3443   10.6809 O.2     1  UNL1       -0.2462
     11 N          62.0854   88.7463   10.6957 N.ar    1  UNL1       -0.2770
     12 C          61.2836   88.7440    9.4281 C.3     1  UNL1        0.1351
     13 N          62.8559   83.6415   11.9927 N.pl3   1  UNL1       -0.2925
     14 C          62.2587   83.0013   13.2107 C.3     1  UNL1        0.0936
     15 C          62.1032   81.5416   13.5191 C.3     1  UNL1        0.0385
     16 C          62.5066   80.3615   12.6854 C.3     1  UNL1        0.0704
     17 N          63.1649   80.3497   11.3377 N.3     1  UNL1       -0.2960
     18 C          63.5826   81.5151   10.4907 C.3     1  UNL1        0.0903
     19 C          63.4451   82.9801   10.7822 C.3     1  UNL1        0.1092
     20 H          62.5255   79.8197   10.7457 H       1  UNL1        0.1233
     21 C          61.4564   85.5555    9.7504 C.1     1  UNL1        0.1047
     22 N          60.6910   85.0899    8.5473 N.1     1  UNL1       -0.1907
     23 C          64.2789   85.5637   14.2129 C.3     1  UNL1        0.1332
     24 C          62.7979   86.4074   17.7969 C.3     1  UNL1        0.0261
     25 C          63.0110   85.7327   16.4743 C.2     1  UNL1       -0.0460
     26 C          62.1691   84.5520   16.0905 C.3     1  UNL1        0.0261
     27 C          64.0658   86.2385   15.5356 C.2     1  UNL1       -0.0102
     28 C          63.7050   91.3489   13.2163 C.3     1  UNL1        0.1593
     29 C          65.0417   91.9488   12.8948 C.ar    1  UNL1        0.0821
     30 N          65.4194   92.2180   11.4683 N.ar    1  UNL1       -0.2462
     31 C          66.7561   92.8178   11.1468 C.ar    1  UNL1        0.0985
     32 C          67.7151   93.1484   12.2518 C.ar    1  UNL1        0.0207
     33 C          67.3375   92.8792   13.6783 C.ar    1  UNL1        0.0027
     34 C          68.2965   93.2098   14.7832 C.ar    1  UNL1        0.0001
     35 C          67.9188   92.9405   16.2097 C.ar    1  UNL1        0.0000
     36 C          66.5821   92.3407   16.5312 C.ar    1  UNL1        0.0000
     37 C          65.6230   92.0101   15.4263 C.ar    1  UNL1        0.0012
     38 C          66.0007   92.2793   13.9998 C.ar    1  UNL1        0.0155
@<TRIPOS>BOND
     1    24    25    1
     2    25    26    1
     3    25    27    2
     4    27    23    1
     5    23     1    1
     6     1     2   ar
     7     2    13    1
     8    13    14    1
     9    14    15    1
    10    15    16    1
    11    16    17    1
    12    17    18    1
    13    18    19    1
    14     2     3   ar
    15     3    21    1
    16    21    22    3
    17     3     4   ar
    18     4     5   ar
    19     5     6   ar
    20     6     7    2
    21     6     8   ar
    22     8    28    1
    23    28    29    1
    24    29    30   ar
    25    30    31   ar
    26    31    32   ar
    27    32    33   ar
    28    33    34   ar
    29    34    35   ar
    30    35    36   ar
    31    36    37   ar
    32    37    38   ar
    33     8     9   ar
    34     9    10    2
    35     9    11   ar
    36    11    12    1
    37     5     1   ar
    38    38    29   ar
    39    19    13    1
    40    11     4   ar
    41    38    33   ar
    42    17    20    1
@<TRIPOS>MOLECULE
*****
 38 42 0 0 0
SMALL
GASTEIGER

@<TRIPOS>ATOM
      1 N          63.6069   86.0067   13.1741 N.ar    1  UNL1       -0.3063
      2 C          62.9376   85.1838   12.1135 C.ar    1  UNL1        0.1240
      3 C          62.3012   86.1222   11.1315 C.ar    1  UNL1        0.1156
      4 C          62.5772   87.5251   11.5852 C.ar    1  UNL1        0.0966
      5 C          63.3841   87.4537   12.8475 C.ar    1  UNL1        0.1349
      6 C          63.8119   88.7155   13.5367 C.ar    1  UNL1        0.2819
      7 O          64.6188   88.6441   14.7991 O.2     1  UNL1       -0.2652
      8 N          63.4326   90.0487   12.9634 N.ar    1  UNL1       -0.2417
      9 C          62.6256   90.1201   11.7009 C.ar    1  UNL1        0.3342
     10 O          62.2463   91.4533   11.1276 O.2     1  UNL1       -0.2462
     11 N          62.1979   88.8583   11.0119 N.ar    1  UNL1       -0.2770
     12 C          61.3909   88.9297    9.7495 C.3     1  UNL1        0.1351
     13 N          62.9097   83.6855   12.0467 N.pl3   1  UNL1       -0.2925
     14 C          62.3031   82.9925   13.2306 C.3     1  UNL1        0.0936
     15 C          62.1290   81.5212   13.4651 C.3     1  UNL1        0.0385
     16 C          62.5186   80.3796   12.5735 C.3     1  UNL1        0.0704
     17 N          63.1784   80.4273   11.2272 N.3     1  UNL1       -0.2960
     18 C          63.6116   81.6284   10.4401 C.3     1  UNL1        0.0903
     19 C          63.4920   83.0785   10.8048 C.3     1  UNL1        0.1092
     20 H          62.5331   79.9357   10.6089 H       1  UNL1        0.1233
     21 C          61.5251   85.7272    9.9102 C.1     1  UNL1        0.1047
     22 N          60.7490   85.3320    8.6888 N.1     1  UNL1       -0.1907
     23 C          64.3658   85.4759   14.3541 C.3     1  UNL1        0.1332
     24 C          62.7970   86.3671   17.8889 C.3     1  UNL1        0.0261
     25 C          62.9822   85.7451   16.5365 C.2     1  UNL1       -0.0460
     26 C          61.9687   84.7702   16.0143 C.3     1  UNL1        0.0261
     27 C          64.1806   86.0979   15.7064 C.2     1  UNL1       -0.0102
     28 C          63.8603   91.3105   13.6525 C.3     1  UNL1        0.1593
     29 C          65.3191   91.6255   13.8030 C.ar    1  UNL1        0.0821
     30 N          65.9643   91.5622   15.1556 N.ar    1  UNL1       -0.2462
     31 C          67.4232   91.8771   15.3061 C.ar    1  UNL1        0.0985
     32 C          68.2367   92.2553   14.1041 C.ar    1  UNL1        0.0207
     33 C          67.5915   92.3186   12.7514 C.ar    1  UNL1        0.0027
     34 C          68.4050   92.6968   11.5493 C.ar    1  UNL1        0.0001
     35 C          67.7598   92.7601   10.1967 C.ar    1  UNL1        0.0000
     36 C          66.3010   92.4452   10.0462 C.ar    1  UNL1        0.0000
     37 C          65.4874   92.0670   11.2482 C.ar    1  UNL1        0.0012
     38 C          66.1327   92.0037   12.6008 C.ar    1  UNL1        0.0155
@<TRIPOS>BOND
     1    24    25    1
     2    25    26    1
     3    25    27    2
     4    27    23    1
     5    23     1    1
     6     1     2   ar
     7     2    13    1
     8    13    14    1
     9    14    15    1
    10    15    16    1
    11    16    17    1
    12    17    18    1
    13    18    19    1
    14     2     3   ar
    15     3    21    1
    16    21    22    3
    17     3     4   ar
    18     4     5   ar
    19     5     6   ar
    20     6     7    2
    21     6     8   ar
    22     8    28    1
    23    28    29    1
    24    29    30   ar
    25    30    31   ar
    26    31    32   ar
    27    32    33   ar
    28    33    34   ar
    29    34    35   ar
    30    35    36   ar
    31    36    37   ar
    32    37    38   ar
    33     8     9   ar
    34     9    10    2
    35     9    11   ar
    36    11    12    1
    37     5     1   ar
    38    38    29   ar
    39    19    13    1
    40    11     4   ar
    41    38    33   ar
    42    17    20    1
@<TRIPOS>MOLECULE
*****
 38 42 0 0 0
SMALL
GASTEIGER

@<TRIPOS>ATOM
      1 N          63.8529   86.7510   13.6554 N.ar    1  UNL1       -0.3063
      2 C          63.1417   85.7374   12.8088 C.ar    1  UNL1        0.1240
      3 C          62.5490   86.4516   11.6304 C.ar    1  UNL1        0.1156
      4 C          62.8939   87.9066   11.7487 C.ar    1  UNL1        0.0966
      5 C          63.6998   88.0916   13.0002 C.ar    1  UNL1        0.1349
      6 C          64.1901   89.4570   13.3816 C.ar    1  UNL1        0.2819
      7 O          64.9959   89.6421   14.6331 O.2     1  UNL1       -0.2652
      8 N          63.8745   90.6373   12.5114 N.ar    1  UNL1       -0.2417
      9 C          63.0686   90.4522   11.2598 C.ar    1  UNL1        0.3342
     10 O          62.7529   91.6326   10.3896 O.2     1  UNL1       -0.2462
     11 N          62.5783   89.0869   10.8785 N.ar    1  UNL1       -0.2770
     12 C          61.7725   88.9019    9.6270 C.3     1  UNL1        0.1351
     13 N          63.0409   84.2676   13.0911 N.pl3   1  UNL1       -0.2925
     14 C          63.7691   83.3699   12.1352 C.3     1  UNL1        0.0936
     15 C          63.8615   81.8728   12.1439 C.3     1  UNL1        0.0385
     16 C          63.2485   80.9036   13.1109 C.3     1  UNL1        0.0704
     17 N          62.3917   81.1922   14.3078 N.3     1  UNL1       -0.2960
     18 C          61.9363   82.5213   14.8334 C.3     1  UNL1        0.0903
     19 C          62.2252   83.8900   14.2919 C.3     1  UNL1        0.1092
     20 H          62.8914   80.7664   15.0884 H       1  UNL1        0.1233
     21 C          61.7514   85.8215   10.5273 C.1     1  UNL1        0.1047
     22 N          60.9539   85.1913    9.4241 N.1     1  UNL1       -0.1907
     23 C          64.5882   86.4729   14.9329 C.3     1  UNL1        0.1332
     24 C          62.4053   86.4901   18.2472 C.3     1  UNL1        0.0261
     25 C          63.1543   86.9734   17.0408 C.2     1  UNL1       -0.0460
     26 C          63.2181   88.4408   16.7358 C.3     1  UNL1        0.0261
     27 C          63.8393   85.9896   16.1394 C.2     1  UNL1       -0.0102
     28 C          64.3647   92.0027   12.8927 C.3     1  UNL1        0.1593
     29 C          65.2693   92.1710   14.0773 C.ar    1  UNL1        0.0821
     30 N          64.6858   92.4027   15.4396 N.ar    1  UNL1       -0.2462
     31 C          65.5903   92.5711   16.6242 C.ar    1  UNL1        0.0985
     32 C          67.0784   92.5077   16.4467 C.ar    1  UNL1        0.0207
     33 C          67.6620   92.2759   15.0843 C.ar    1  UNL1        0.0027
     34 C          69.1501   92.2125   14.9067 C.ar    1  UNL1        0.0001
     35 C          69.7335   91.9808   13.5445 C.ar    1  UNL1        0.0000
     36 C          68.8290   91.8125   12.3598 C.ar    1  UNL1        0.0000
     37 C          67.3409   91.8759   12.5374 C.ar    1  UNL1        0.0012
     38 C          66.7574   92.1076   13.8997 C.ar    1  UNL1        0.0155
@<TRIPOS>BOND
     1    24    25    1
     2    25    26    1
     3    25    27    2
     4    27    23    1
     5    23     1    1
     6     1     2   ar
     7     2    13    1
     8    13    14    1
     9    14    15    1
    10    15    16    1
    11    16    17    1
    12    17    18    1
    13    18    19    1
    14     2     3   ar
    15     3    21    1
    16    21    22    3
    17     3     4   ar
    18     4     5   ar
    19     5     6   ar
    20     6     7    2
    21     6     8   ar
    22     8    28    1
    23    28    29    1
    24    29    30   ar
    25    30    31   ar
    26    31    32   ar
    27    32    33   ar
    28    33    34   ar
    29    34    35   ar
    30    35    36   ar
    31    36    37   ar
    32    37    38   ar
    33     8     9   ar
    34     9    10    2
    35     9    11   ar
    36    11    12    1
    37     5     1   ar
    38    38    29   ar
    39    19    13    1
    40    11     4   ar
    41    38    33   ar
    42    17    20    1
@<TRIPOS>MOLECULE
*****
 38 42 0 0 0
SMALL
GASTEIGER

@<TRIPOS>ATOM
      1 N          63.8516   87.4145   13.4789 N.ar    1  UNL1       -0.3063
      2 C          62.9657   86.4232   12.7841 C.ar    1  UNL1        0.1240
      3 C          62.3748   87.0941   11.5796 C.ar    1  UNL1        0.1156
      4 C          62.8955   88.4999   11.5300 C.ar    1  UNL1        0.0966
      5 C          63.8082   88.6979   12.7037 C.ar    1  UNL1        0.1349
      6 C          64.4818   90.0214   12.9152 C.ar    1  UNL1        0.2819
      7 O          65.3945   90.2194   14.0889 O.2     1  UNL1       -0.2652
      8 N          64.2428   91.1469   11.9528 N.ar    1  UNL1       -0.2417
      9 C          63.3300   90.9488   10.7789 C.ar    1  UNL1        0.3342
     10 O          63.0909   92.0743    9.8166 O.2     1  UNL1       -0.2462
     11 N          62.6564   89.6254   10.5676 N.ar    1  UNL1       -0.2770
     12 C          61.7437   89.4274    9.3938 C.3     1  UNL1        0.1351
     13 N          62.7149   85.0093   13.2177 N.pl3   1  UNL1       -0.2925
     14 C          62.8881   83.9629   12.1571 C.3     1  UNL1        0.0936
     15 C          62.7132   82.4775   12.2714 C.3     1  UNL1        0.0385
     16 C          62.3219   81.6717   13.4746 C.3     1  UNL1        0.0704
     17 N          62.0087   82.1523   14.8605 N.3     1  UNL1       -0.2960
     18 C          62.0097   83.5573   15.3857 C.3     1  UNL1        0.0903
     19 C          62.3239   84.8289   14.6546 C.3     1  UNL1        0.1092
     20 H          62.6691   81.6556   15.4585 H       1  UNL1        0.1233
     21 C          61.4293   86.4689   10.5973 C.1     1  UNL1        0.1047
     22 N          60.4836   85.8437    9.6150 N.1     1  UNL1       -0.1907
     23 C          64.6421   87.1659   14.7292 C.3     1  UNL1        0.1332
     24 C          62.5519   86.9849   18.0979 C.3     1  UNL1        0.0261
     25 C          63.2303   87.5355   16.8786 C.2     1  UNL1       -0.0460
     26 C          63.1753   89.0064   16.5896 C.3     1  UNL1        0.0261
     27 C          63.9637   86.6153   15.9484 C.2     1  UNL1       -0.0102
     28 C          64.9164   92.4703   12.1641 C.3     1  UNL1        0.1593
     29 C          66.1104   92.8447   11.3370 C.ar    1  UNL1        0.0821
     30 N          67.2510   91.8821   11.1877 N.ar    1  UNL1       -0.2462
     31 C          68.4450   92.2565   10.3606 C.ar    1  UNL1        0.0985
     32 C          68.4985   93.5935    9.6829 C.ar    1  UNL1        0.0207
     33 C          67.3579   94.5562    9.8322 C.ar    1  UNL1        0.0027
     34 C          67.4113   95.8933    9.1544 C.ar    1  UNL1        0.0001
     35 C          66.2708   96.8559    9.3037 C.ar    1  UNL1        0.0000
     36 C          65.0767   96.4815   10.1308 C.ar    1  UNL1        0.0000
     37 C          65.0233   95.1445   10.8086 C.ar    1  UNL1        0.0012
     38 C          66.1638   94.1818   10.6593 C.ar    1  UNL1        0.0155
@<TRIPOS>BOND
     1    24    25    1
     2    25    26    1
     3    25    27    2
     4    27    23    1
     5    23     1    1
     6     1     2   ar
     7     2    13    1
     8    13    14    1
     9    14    15    1
    10    15    16    1
    11    16    17    1
    12    17    18    1
    13    18    19    1
    14     2     3   ar
    15     3    21    1
    16    21    22    3
    17     3     4   ar
    18     4     5   ar
    19     5     6   ar
    20     6     7    2
    21     6     8   ar
    22     8    28    1
    23    28    29    1
    24    29    30   ar
    25    30    31   ar
    26    31    32   ar
    27    32    33   ar
    28    33    34   ar
    29    34    35   ar
    30    35    36   ar
    31    36    37   ar
    32    37    38   ar
    33     8     9   ar
    34     9    10    2
    35     9    11   ar
    36    11    12    1
    37     5     1   ar
    38    38    29   ar
    39    19    13    1
    40    11     4   ar
    41    38    33   ar
    42    17    20    1
@<TRIPOS>MOLECULE
*****
 38 42 0 0 0
SMALL
GASTEIGER

@<TRIPOS>ATOM
      1 N          62.9165   85.6113   11.5562 N.ar    1  UNL1       -0.3063
      2 C          63.1805   84.3837   12.3768 C.ar    1  UNL1        0.1240
      3 C          63.5499   84.8231   13.7626 C.ar    1  UNL1        0.1156
      4 C          63.5141   86.3223   13.7985 C.ar    1  UNL1        0.0966
      5 C          63.1227   86.8093   12.4349 C.ar    1  UNL1        0.1349
      6 C          63.0045   88.2810   12.1694 C.ar    1  UNL1        0.2819
      7 O          62.6131   88.7680   10.8058 O.2     1  UNL1       -0.2652
      8 N          63.2779   89.2655   13.2676 N.ar    1  UNL1       -0.2417
      9 C          63.6693   88.7783   14.6313 C.ar    1  UNL1        0.3342
     10 O          63.9427   89.7629   15.7295 O.2     1  UNL1       -0.2462
     11 N          63.7875   87.3068   14.8967 N.ar    1  UNL1       -0.2770
     12 C          64.1789   86.8197   16.2603 C.3     1  UNL1        0.1351
     13 N          63.0909   82.9657   11.8960 N.pl3   1  UNL1       -0.2925
     14 C          63.6138   82.7132   10.5129 C.3     1  UNL1        0.0936
     15 C          63.6652   81.4204    9.7540 C.3     1  UNL1        0.0385
     16 C          63.2064   80.0606   10.1908 C.3     1  UNL1        0.0704
     17 N          62.5829   79.6580   11.4943 N.3     1  UNL1       -0.2960
     18 C          62.2643   80.5156   12.6830 C.3     1  UNL1        0.0903
     19 C          62.4903   81.9877   12.8618 C.3     1  UNL1        0.1092
     20 H          63.2009   78.9336   11.8602 H       1  UNL1        0.1233
     21 C          63.8945   83.9217   14.9109 C.1     1  UNL1        0.1047
     22 N          64.2391   83.0202   16.0593 N.1     1  UNL1       -0.1907
     23 C          62.5165   85.6364   10.1108 C.3     1  UNL1        0.1332
     24 C          59.3577   86.5778    7.9004 C.3     1  UNL1        0.0261
     25 C          60.6982   86.0349    8.2984 C.2     1  UNL1       -0.0460
     26 C          61.5609   85.3478    7.2816 C.3     1  UNL1        0.0261
     27 C          61.1760   86.1792    9.7128 C.2     1  UNL1       -0.0102
     28 C          63.1597   90.7371   13.0022 C.3     1  UNL1        0.1593
     29 C          64.3412   91.5031   12.4852 C.ar    1  UNL1        0.0821
     30 N          64.5125   91.7118   11.0097 N.ar    1  UNL1       -0.2462
     31 C          65.6939   92.4779   10.4928 C.ar    1  UNL1        0.0985
     32 C          66.7041   93.0353   11.4512 C.ar    1  UNL1        0.0207
     33 C          66.5328   92.8267   12.9268 C.ar    1  UNL1        0.0027
     34 C          67.5430   93.3842   13.8853 C.ar    1  UNL1        0.0001
     35 C          67.3717   93.1755   15.3608 C.ar    1  UNL1        0.0000
     36 C          66.1903   92.4095   15.8778 C.ar    1  UNL1        0.0000
     37 C          65.1801   91.8520   14.9193 C.ar    1  UNL1        0.0012
     38 C          65.3514   92.0606   13.4438 C.ar    1  UNL1        0.0155
@<TRIPOS>BOND
     1    24    25    1
     2    25    26    1
     3    25    27    2
     4    27    23    1
     5    23     1    1
     6     1     2   ar
     7     2    13    1
     8    13    14    1
     9    14    15    1
    10    15    16    1
    11    16    17    1
    12    17    18    1
    13    18    19    1
    14     2     3   ar
    15     3    21    1
    16    21    22    3
    17     3     4   ar
    18     4     5   ar
    19     5     6   ar
    20     6     7    2
    21     6     8   ar
    22     8    28    1
    23    28    29    1
    24    29    30   ar
    25    30    31   ar
    26    31    32   ar
    27    32    33   ar
    28    33    34   ar
    29    34    35   ar
    30    35    36   ar
    31    36    37   ar
    32    37    38   ar
    33     8     9   ar
    34     9    10    2
    35     9    11   ar
    36    11    12    1
    37     5     1   ar
    38    38    29   ar
    39    19    13    1
    40    11     4   ar
    41    38    33   ar
    42    17    20    1
@<TRIPOS>MOLECULE
*****
 38 42 0 0 0
SMALL
GASTEIGER

@<TRIPOS>ATOM
      1 N          60.8584   93.7177   -1.4489 N.ar    1  UNL1       -0.3063
      2 C          62.1521   94.4768   -1.4666 C.ar    1  UNL1        0.1240
      3 C          62.2858   95.1335   -2.8086 C.ar    1  UNL1        0.1156
      4 C          61.0748   94.7803   -3.6202 C.ar    1  UNL1        0.0966
      5 C          60.1927   93.9053   -2.7799 C.ar    1  UNL1        0.1349
      6 C          58.8971   93.3923   -3.3353 C.ar    1  UNL1        0.2819
      7 O          58.0150   92.5173   -2.4949 O.2     1  UNL1       -0.2652
      8 N          58.4837   93.7544   -4.7310 N.ar    1  UNL1       -0.2417
      9 C          59.3659   94.6294   -5.5713 C.ar    1  UNL1        0.3342
     10 O          58.9525   94.9915   -6.9670 O.2     1  UNL1       -0.2462
     11 N          60.6614   95.1424   -5.0159 N.ar    1  UNL1       -0.2770
     12 C          61.5435   96.0173   -5.8563 C.3     1  UNL1        0.1351
     13 N          63.1387   94.5639   -0.3401 N.pl3   1  UNL1       -0.2925
     14 C          62.9572   95.7219    0.5959 C.3     1  UNL1        0.0936
     15 C          63.7685   96.0835    1.8046 C.3     1  UNL1        0.0385
     16 C          64.9618   95.3764    2.3758 C.3     1  UNL1        0.0704
     17 N          65.6384   94.1331    1.8794 N.3     1  UNL1       -0.2960
     18 C          65.2889   93.2899    0.6891 C.3     1  UNL1        0.0903
     19 C          64.1764   93.4816   -0.2987 C.3     1  UNL1        0.1092
     20 H          65.6002   93.4888    2.6691 H       1  UNL1        0.1233
     21 C          63.4296   95.9926   -3.2597 C.1     1  UNL1        0.1047
     22 N          64.5735   96.8517   -3.7110 N.1     1  UNL1       -0.1907
     23 C          60.3243   92.9124   -0.3016 C.3     1  UNL1        0.1332
     24 C          62.3096   91.9811    3.0061 C.3     1  UNL1        0.0261
     25 C          61.3630   92.6684    2.0673 C.2     1  UNL1       -0.0460
     26 C          60.5083   93.7990    2.5585 C.3     1  UNL1        0.0261
     27 C          61.2710   92.2252    0.6373 C.2     1  UNL1       -0.0102
     28 C          57.1882   93.2415   -5.2864 C.3     1  UNL1        0.1593
     29 C          56.0721   94.1964   -5.5906 C.ar    1  UNL1        0.0821
     30 N          55.7724   94.5715   -7.0116 N.ar    1  UNL1       -0.2462
     31 C          54.6564   95.5265   -7.3158 C.ar    1  UNL1        0.0985
     32 C          53.8400   96.1063   -6.1990 C.ar    1  UNL1        0.0207
     33 C          54.1398   95.7312   -4.7778 C.ar    1  UNL1        0.0027
     34 C          53.3234   96.3110   -3.6610 C.ar    1  UNL1        0.0001
     35 C          53.6232   95.9359   -2.2399 C.ar    1  UNL1        0.0000
     36 C          54.7392   94.9810   -1.9357 C.ar    1  UNL1        0.0000
     37 C          55.5555   94.4011   -3.0526 C.ar    1  UNL1        0.0012
     38 C          55.2558   94.7762   -4.4736 C.ar    1  UNL1        0.0155
@<TRIPOS>BOND
     1    24    25    1
     2    25    26    1
     3    25    27    2
     4    27    23    1
     5    23     1    1
     6     1     2   ar
     7     2    13    1
     8    13    14    1
     9    14    15    1
    10    15    16    1
    11    16    17    1
    12    17    18    1
    13    18    19    1
    14     2     3   ar
    15     3    21    1
    16    21    22    3
    17     3     4   ar
    18     4     5   ar
    19     5     6   ar
    20     6     7    2
    21     6     8   ar
    22     8    28    1
    23    28    29    1
    24    29    30   ar
    25    30    31   ar
    26    31    32   ar
    27    32    33   ar
    28    33    34   ar
    29    34    35   ar
    30    35    36   ar
    31    36    37   ar
    32    37    38   ar
    33     8     9   ar
    34     9    10    2
    35     9    11   ar
    36    11    12    1
    37     5     1   ar
    38    38    29   ar
    39    19    13    1
    40    11     4   ar
    41    38    33   ar
    42    17    20    1
@<TRIPOS>MOLECULE
*****
 38 42 0 0 0
SMALL
GASTEIGER

@<TRIPOS>ATOM
      1 N          62.9391   85.4713   11.6183 N.ar    1  UNL1       -0.3063
      2 C          63.2037   84.2256   12.4109 C.ar    1  UNL1        0.1240
      3 C          63.5885   84.6342   13.8018 C.ar    1  UNL1        0.1156
      4 C          63.5618   86.1324   13.8690 C.ar    1  UNL1        0.0966
      5 C          63.1604   86.6498   12.5195 C.ar    1  UNL1        0.1349
      6 C          63.0483   88.1272   12.2856 C.ar    1  UNL1        0.2819
      7 O          62.6469   88.6446   10.9361 O.2     1  UNL1       -0.2652
      8 N          63.3376   89.0873   13.4012 N.ar    1  UNL1       -0.2417
      9 C          63.7390   88.5698   14.7508 C.ar    1  UNL1        0.3342
     10 O          64.0284   89.5299   15.8664 O.2     1  UNL1       -0.2462
     11 N          63.8511   87.0925   14.9846 N.ar    1  UNL1       -0.2770
     12 C          64.2525   86.5751   16.3341 C.3     1  UNL1        0.1351
     13 N          63.1013   82.8183   11.9017 N.pl3   1  UNL1       -0.2925
     14 C          63.5952   82.5947   10.5031 C.3     1  UNL1        0.0936
     15 C          63.6285   81.3184    9.7159 C.3     1  UNL1        0.0385
     16 C          63.1759   79.9503   10.1328 C.3     1  UNL1        0.0704
     17 N          62.5785   79.5208   11.4399 N.3     1  UNL1       -0.2960
     18 C          62.2859   80.3533   12.6529 C.3     1  UNL1        0.0903
     19 C          62.5186   81.8208   12.8585 C.3     1  UNL1        0.1092
     20 H          63.2023   78.7878   11.7774 H       1  UNL1        0.1233
     21 C          63.9387   83.7073   14.9280 C.1     1  UNL1        0.1047
     22 N          64.2888   82.7803   16.0542 N.1     1  UNL1       -0.1907
     23 C          62.5257   85.5286   10.1775 C.3     1  UNL1        0.1332
     24 C          59.3910   86.6208    8.0024 C.3     1  UNL1        0.0261
     25 C          60.7253   86.0473    8.3776 C.2     1  UNL1       -0.0460
     26 C          61.5936   85.4190    7.3281 C.3     1  UNL1        0.0261
     27 C          61.1914   86.1020    9.8023 C.2     1  UNL1       -0.0102
     28 C          63.2255   90.5646   13.1674 C.3     1  UNL1        0.1593
     29 C          64.3644   91.4702   13.5319 C.ar    1  UNL1        0.0821
     30 N          64.7731   91.6208   14.9672 N.ar    1  UNL1       -0.2462
     31 C          65.9120   92.5264   15.3317 C.ar    1  UNL1        0.0985
     32 C          66.6422   93.2814   14.2609 C.ar    1  UNL1        0.0207
     33 C          66.2335   93.1308   12.8254 C.ar    1  UNL1        0.0027
     34 C          66.9637   93.8858   11.7546 C.ar    1  UNL1        0.0001
     35 C          66.5551   93.7352   10.3193 C.ar    1  UNL1        0.0000
     36 C          65.4162   92.8296    9.9548 C.ar    1  UNL1        0.0000
     37 C          64.6860   92.0746   11.0256 C.ar    1  UNL1        0.0012
     38 C          65.0946   92.2252   12.4609 C.ar    1  UNL1        0.0155
@<TRIPOS>BOND
     1    24    25    1
     2    25    26    1
     3    25    27    2
     4    27    23    1
     5    23     1    1
     6     1     2   ar
     7     2    13    1
     8    13    14    1
     9    14    15    1
    10    15    16    1
    11    16    17    1
    12    17    18    1
    13    18    19    1
    14     2     3   ar
    15     3    21    1
    16    21    22    3
    17     3     4   ar
    18     4     5   ar
    19     5     6   ar
    20     6     7    2
    21     6     8   ar
    22     8    28    1
    23    28    29    1
    24    29    30   ar
    25    30    31   ar
    26    31    32   ar
    27    32    33   ar
    28    33    34   ar
    29    34    35   ar
    30    35    36   ar
    31    36    37   ar
    32    37    38   ar
    33     8     9   ar
    34     9    10    2
    35     9    11   ar
    36    11    12    1
    37     5     1   ar
    38    38    29   ar
    39    19    13    1
    40    11     4   ar
    41    38    33   ar
    42    17    20    1
@<TRIPOS>MOLECULE
*****
 38 42 0 0 0
SMALL
GASTEIGER

@<TRIPOS>ATOM
      1 N          64.2936   88.8521   13.8920 N.ar    1  UNL1       -0.3063
      2 C          64.6209   90.2730   13.5400 C.ar    1  UNL1        0.1240
      3 C          64.0327   90.5637   12.1911 C.ar    1  UNL1        0.1156
      4 C          63.3418   89.3224   11.7095 C.ar    1  UNL1        0.0966
      5 C          63.5030   88.2647   12.7607 C.ar    1  UNL1        0.1349
      6 C          62.9091   86.9031   12.5519 C.ar    1  UNL1        0.2819
      7 O          63.0704   85.8453   13.6031 O.2     1  UNL1       -0.2652
      8 N          62.1540   86.5994   11.2919 N.ar    1  UNL1       -0.2417
      9 C          61.9928   87.6572   10.2407 C.ar    1  UNL1        0.3342
     10 O          61.2377   87.3535    8.9807 O.2     1  UNL1       -0.2462
     11 N          62.5867   89.0187   10.4495 N.ar    1  UNL1       -0.2770
     12 C          62.4255   90.0765    9.3983 C.3     1  UNL1        0.1351
     13 N          65.3998   91.2344   14.3880 N.pl3   1  UNL1       -0.2925
     14 C          66.7395   91.6401   13.8489 C.3     1  UNL1        0.0936
     15 C          67.7463   92.5745   14.4515 C.3     1  UNL1        0.0385
     16 C          67.6619   93.3341   15.7423 C.3     1  UNL1        0.0704
     17 N          66.5501   93.3468   16.7491 N.3     1  UNL1       -0.2960
     18 C          65.2480   92.6031   16.7138 C.3     1  UNL1        0.0903
     19 C          64.7360   91.6630   15.6630 C.3     1  UNL1        0.1092
     20 H          66.2820   94.3283   16.8212 H       1  UNL1        0.1233
     21 C          64.1201   91.8668   11.4534 C.1     1  UNL1        0.1047
     22 N          64.2075   93.1699   10.7155 N.1     1  UNL1       -0.1907
     23 C          64.6875   88.1431   15.1538 C.3     1  UNL1        0.1332
     24 C          62.3953   86.5961   18.0003 C.3     1  UNL1        0.0261
     25 C          63.3675   86.6983   16.8626 C.2     1  UNL1       -0.0460
     26 C          63.9918   85.4576   16.2959 C.3     1  UNL1        0.0261
     27 C          63.7153   88.0409   16.2916 C.2     1  UNL1       -0.0102
     28 C          61.5602   85.2379   11.0832 C.3     1  UNL1        0.1593
     29 C          62.4559   84.0459   10.9199 C.ar    1  UNL1        0.0821
     30 N          63.3137   83.9143    9.6964 N.ar    1  UNL1       -0.2462
     31 C          64.2095   82.7223    9.5332 C.ar    1  UNL1        0.0985
     32 C          64.2475   81.6619   10.5933 C.ar    1  UNL1        0.0207
     33 C          63.3897   81.7934   11.8168 C.ar    1  UNL1        0.0027
     34 C          63.4277   80.7330   12.8770 C.ar    1  UNL1        0.0001
     35 C          62.5699   80.8645   14.1004 C.ar    1  UNL1        0.0000
     36 C          61.6741   82.0566   14.2637 C.ar    1  UNL1        0.0000
     37 C          61.6361   83.1170   13.2035 C.ar    1  UNL1        0.0012
     38 C          62.4939   82.9854   11.9801 C.ar    1  UNL1        0.0155
@<TRIPOS>BOND
     1    24    25    1
     2    25    26    1
     3    25    27    2
     4    27    23    1
     5    23     1    1
     6     1     2   ar
     7     2    13    1
     8    13    14    1
     9    14    15    1
    10    15    16    1
    11    16    17    1
    12    17    18    1
    13    18    19    1
    14     2     3   ar
    15     3    21    1
    16    21    22    3
    17     3     4   ar
    18     4     5   ar
    19     5     6   ar
    20     6     7    2
    21     6     8   ar
    22     8    28    1
    23    28    29    1
    24    29    30   ar
    25    30    31   ar
    26    31    32   ar
    27    32    33   ar
    28    33    34   ar
    29    34    35   ar
    30    35    36   ar
    31    36    37   ar
    32    37    38   ar
    33     8     9   ar
    34     9    10    2
    35     9    11   ar
    36    11    12    1
    37     5     1   ar
    38    38    29   ar
    39    19    13    1
    40    11     4   ar
    41    38    33   ar
    42    17    20    1
@<TRIPOS>MOLECULE
*****
 38 42 0 0 0
SMALL
GASTEIGER

@<TRIPOS>ATOM
      1 N          64.6013   91.5335   11.9863 N.ar    1  UNL1       -0.3063
      2 C          65.0041   91.4756   13.4300 C.ar    1  UNL1        0.1240
      3 C          63.8813   90.8454   14.1995 C.ar    1  UNL1        0.1156
      4 C          62.7846   90.5138   13.2314 C.ar    1  UNL1        0.0966
      5 C          63.2296   90.9392   11.8635 C.ar    1  UNL1        0.1349
      6 C          62.3282   90.7303   10.6828 C.ar    1  UNL1        0.2819
      7 O          62.7733   91.1556    9.3150 O.2     1  UNL1       -0.2652
      8 N          60.9819   90.0961   10.8700 N.ar    1  UNL1       -0.2417
      9 C          60.5369   89.6707   12.2380 C.ar    1  UNL1        0.3342
     10 O          59.1905   89.0365   12.4252 O.2     1  UNL1       -0.2462
     11 N          61.4382   89.8796   13.4186 N.ar    1  UNL1       -0.2770
     12 C          60.9932   89.4543   14.7864 C.3     1  UNL1        0.1351
     13 N          66.3018   91.9624   14.0036 N.pl3   1  UNL1       -0.2925
     14 C          66.2030   92.6907   15.3111 C.3     1  UNL1        0.0936
     15 C          67.3046   93.2931   16.1318 C.3     1  UNL1        0.0385
     16 C          68.7773   93.3157   15.8476 C.3     1  UNL1        0.0704
     17 N          69.5120   92.7417   14.6726 N.3     1  UNL1       -0.2960
     18 C          68.9555   92.0033   13.4915 C.3     1  UNL1        0.0903
     19 C          67.5268   91.6564   13.1938 C.3     1  UNL1        0.1092
     20 H          70.1860   92.0957   15.0834 H       1  UNL1        0.1233
     21 C          63.8590   90.5912   15.6777 C.1     1  UNL1        0.1047
     22 N          63.8366   90.3372   17.1559 N.1     1  UNL1       -0.1907
     23 C          65.4255   92.0885   10.8626 C.3     1  UNL1        0.1332
     24 C          67.0510   95.5862    9.9276 C.3     1  UNL1        0.0261
     25 C          66.8464   94.1050   10.0472 C.2     1  UNL1       -0.0460
     26 C          67.8581   93.1592    9.4710 C.3     1  UNL1        0.0261
     27 C          65.6302   93.5696   10.7430 C.2     1  UNL1       -0.0102
     28 C          60.0805   89.8872    9.6894 C.3     1  UNL1        0.1593
     29 C          60.0834   88.5727    8.9669 C.ar    1  UNL1        0.0821
     30 N          59.2559   88.3957    7.7284 N.ar    1  UNL1       -0.2462
     31 C          59.2588   87.0812    7.0059 C.ar    1  UNL1        0.0985
     32 C          60.0892   85.9436    7.5219 C.ar    1  UNL1        0.0207
     33 C          60.9167   86.1205    8.7604 C.ar    1  UNL1        0.0027
     34 C          61.7471   84.9829    9.2764 C.ar    1  UNL1        0.0001
     35 C          62.5746   85.1598   10.5149 C.ar    1  UNL1        0.0000
     36 C          62.5717   86.4743   11.2374 C.ar    1  UNL1        0.0000
     37 C          61.7414   87.6119   10.7214 C.ar    1  UNL1        0.0012
     38 C          60.9139   87.4350    9.4829 C.ar    1  UNL1        0.0155
@<TRIPOS>BOND
     1    24    25    1
     2    25    26    1
     3    25    27    2
     4    27    23    1
     5    23     1    1
     6     1     2   ar
     7     2    13    1
     8    13    14    1
     9    14    15    1
    10    15    16    1
    11    16    17    1
    12    17    18    1
    13    18    19    1
    14     2     3   ar
    15     3    21    1
    16    21    22    3
    17     3     4   ar
    18     4     5   ar
    19     5     6   ar
    20     6     7    2
    21     6     8   ar
    22     8    28    1
    23    28    29    1
    24    29    30   ar
    25    30    31   ar
    26    31    32   ar
    27    32    33   ar
    28    33    34   ar
    29    34    35   ar
    30    35    36   ar
    31    36    37   ar
    32    37    38   ar
    33     8     9   ar
    34     9    10    2
    35     9    11   ar
    36    11    12    1
    37     5     1   ar
    38    38    29   ar
    39    19    13    1
    40    11     4   ar
    41    38    33   ar
    42    17    20    1
