@<TRIPOS>MOLECULE
*****
 54 59 0 0 0
SMALL
GASTEIGER

@<TRIPOS>ATOM
      1 C          60.4825   89.3610   12.1997 C.3     1  UNL1        0.1269
      2 O          59.6535   90.5876   11.9581 O.3     1  UNL1       -0.3830
      3 H          59.8880   91.2692   12.6072 H       1  UNL1        0.2104
      4 C          60.3102   88.1551   11.3245 C.3     1  UNL1        0.0401
      5 C          61.4775   87.2536   11.0514 C.3     1  UNL1        0.0833
      6 O          60.9872   85.9011   13.2148 O.2     1  UNL1       -0.2751
      7 C          61.9024   86.2450   12.0773 C.2     1  UNL1        0.2226
      8 N          63.2424   85.5802   11.9654 N.am    1  UNL1       -0.2999
      9 H          63.8430   85.8060   11.2188 H       1  UNL1        0.1498
     10 C          63.6672   84.5717   12.9912 C.3     1  UNL1        0.1278
     11 C          63.3842   83.1149   12.7727 C.ar    1  UNL1        0.0320
     12 C          62.6763   82.6667   11.5286 C.ar    1  UNL1        0.0004
     13 C          62.3932   81.2099   11.3102 C.ar    1  UNL1       -0.0001
     14 C          62.8181   80.2013   12.3359 C.ar    1  UNL1        0.0031
     15 C          63.5260   80.6495   13.5801 C.ar    1  UNL1        0.0366
     16 C          63.8090   82.1063   13.7985 C.ar    1  UNL1        0.1362
     17 O          64.5170   82.5545   15.0427 O.3     1  UNL1       -0.4730
     18 C          64.8000   84.0112   15.2611 C.3     1  UNL1        0.2364
     19 C          64.3751   85.0198   14.2353 C.3     1  UNL1        0.1762
     20 O          64.6582   86.4766   14.4537 O.3     1  UNL1       -0.3788
     21 H          65.1179   86.5933   15.2998 H       1  UNL1        0.2106
     22 C          62.2201   87.3607    9.7526 C.3     1  UNL1        0.0371
     23 C          61.9388   86.3887    8.6454 C.ar    1  UNL1       -0.0025
     24 C          63.0325   85.5001    8.1315 C.ar    1  UNL1       -0.0011
     25 C          62.7511   84.5279    7.0243 C.ar    1  UNL1        0.0204
     26 C          61.3760   84.4445    6.4310 C.ar    1  UNL1        0.0989
     27 N          60.2822   85.3330    6.9449 N.ar    1  UNL1       -0.2426
     28 C          60.5636   86.3051    8.0521 C.ar    1  UNL1        0.0946
     29 C          61.4838   89.3404   13.3164 C.3     1  UNL1        0.1021
     30 N          62.7414   90.1512   13.2112 N.3     1  UNL1       -0.2621
     31 C          63.1322   90.7622   11.8981 C.3     1  UNL1        0.0901
     32 C          64.3898   91.5730   11.7928 C.3     1  UNL1        0.0900
     33 N          65.2566   91.7729   13.0007 N.3     1  UNL1       -0.2635
     34 C          64.8657   91.1619   14.3137 C.3     1  UNL1        0.0980
     35 C          63.6082   90.3511   14.4189 C.3     1  UNL1        0.1510
     36 C          63.2173   89.7402   15.7319 C.2     1  UNL1        0.2386
     37 O          62.8137   90.6199   16.8779 O.2     1  UNL1       -0.2736
     38 N          63.2302   88.2495   15.8990 N.am    1  UNL1       -0.2961
     39 H          63.4951   87.6722   15.1468 H       1  UNL1        0.1497
     40 C          62.8393   87.6386   17.2120 C.3     1  UNL1        0.1939
     41 C          62.5456   86.1701   17.2981 C.3     1  UNL1        0.4154
     42 F          62.2518   84.7017   17.3842 F       1  UNL1       -0.1682
     43 F          64.0098   85.8865   17.4580 F       1  UNL1       -0.1682
     44 F          61.0814   86.4537   17.1382 F       1  UNL1       -0.1682
     45 C          66.5141   92.5837   12.8954 C.3     1  UNL1        0.1377
     46 C          66.7554   93.4402   11.6878 C.ar    1  UNL1        0.1390
     47 C          67.1731   92.9544   10.3316 C.ar    1  UNL1        0.0374
     48 C          67.2972   94.1468    9.4300 C.ar    1  UNL1        0.0373
     49 C          67.6767   94.2772    7.9847 C.ar    1  UNL1        0.0031
     50 C          67.7151   95.6304    7.3385 C.ar    1  UNL1        0.0002
     51 C          67.3741   96.8531    8.1377 C.ar    1  UNL1        0.0031
     52 C          66.9946   96.7227    9.5830 C.ar    1  UNL1        0.0375
     53 C          66.9562   95.3696   10.2292 C.ar    1  UNL1        0.1449
     54 O          66.6214   94.9328   11.6246 O.2     1  UNL1       -0.4564
@<TRIPOS>BOND
     1     6     7    2
     2     7     8   am
     3    10     8    1
     4    10    11    1
     5    11    12   ar
     6    12    13   ar
     7    13    14   ar
     8    14    15   ar
     9    15    16   ar
    10    16    17    1
    11    17    18    1
    12    18    19    1
    13    19    20    1
    14     7     5    1
    15     5    22    1
    16    22    23    1
    17    23    24   ar
    18    24    25   ar
    19    25    26   ar
    20    26    27   ar
    21    27    28   ar
    22     5     4    1
    23     4     1    1
    24     1     2    1
    25     1    29    1
    26    29    30    1
    27    30    31    1
    28    31    32    1
    29    32    33    1
    30    33    45    1
    31    45    46    1
    32    46    47   ar
    33    47    48   ar
    34    48    49   ar
    35    49    50   ar
    36    50    51   ar
    37    51    52   ar
    38    52    53   ar
    39    53    54   ar
    40    33    34    1
    41    34    35    1
    42    35    36    1
    43    36    37    2
    44    36    38   am
    45    38    40    1
    46    40    41    1
    47    41    42    1
    48    41    43    1
    49    41    44    1
    50    19    10    1
    51    28    23   ar
    52    35    30    1
    53    16    11   ar
    54    54    46   ar
    55    53    48   ar
    56     8     9    1
    57    20    21    1
    58     2     3    1
    59    38    39    1
@<TRIPOS>MOLECULE
*****
 54 59 0 0 0
SMALL
GASTEIGER

@<TRIPOS>ATOM
      1 C          62.2105   86.4980   10.5520 C.3     1  UNL1        0.1269
      2 O          63.1333   87.6749   10.6664 O.3     1  UNL1       -0.3830
      3 H          62.6141   88.4942   10.6659 H       1  UNL1        0.2104
      4 C          62.7691   85.1061   10.5305 C.3     1  UNL1        0.0401
      5 C          63.2881   84.4866   11.7942 C.3     1  UNL1        0.0833
      6 O          61.5844   84.8750   13.7169 O.2     1  UNL1       -0.2751
      7 C          62.9444   85.0926   13.1226 C.2     1  UNL1        0.2226
      8 N          63.9607   85.9161   13.8568 N.am    1  UNL1       -0.2999
      9 H          64.8533   86.0588   13.4668 H       1  UNL1        0.1498
     10 C          63.6170   86.5220   15.1852 C.3     1  UNL1        0.1278
     11 C          63.7204   88.0054   15.3822 C.ar    1  UNL1        0.0320
     12 C          64.1674   88.8829   14.2507 C.ar    1  UNL1        0.0004
     13 C          64.2707   90.3663   14.4477 C.ar    1  UNL1       -0.0001
     14 C          63.9271   90.9722   15.7761 C.ar    1  UNL1        0.0031
     15 C          63.4801   90.0948   16.9075 C.ar    1  UNL1        0.0366
     16 C          63.3767   88.6114   16.7106 C.ar    1  UNL1        0.1362
     17 O          62.9297   87.7339   17.8421 O.3     1  UNL1       -0.4730
     18 C          62.8263   86.2505   17.6451 C.3     1  UNL1        0.2364
     19 C          63.1700   85.6445   16.3166 C.3     1  UNL1        0.1762
     20 O          63.0667   84.1611   16.1197 O.3     1  UNL1       -0.3788
     21 H          62.7661   83.7458   16.9431 H       1  UNL1        0.2106
     22 C          64.1507   83.2612   11.7295 C.3     1  UNL1        0.0371
     23 C          63.6372   81.9538   12.2557 C.ar    1  UNL1       -0.0025
     24 C          63.0731   80.9346   11.3107 C.ar    1  UNL1       -0.0011
     25 C          62.5595   79.6271   11.8370 C.ar    1  UNL1        0.0204
     26 C          62.6100   79.3390   13.3082 C.ar    1  UNL1        0.0989
     27 N          63.1741   80.3582   14.2531 N.ar    1  UNL1       -0.2426
     28 C          63.6877   81.6656   13.7269 C.ar    1  UNL1        0.0946
     29 C          60.7288   86.7129   10.4590 C.3     1  UNL1        0.1021
     30 N          60.1643   87.5898    9.3808 N.3     1  UNL1       -0.2621
     31 C          59.3216   86.9927    8.2930 C.3     1  UNL1        0.0901
     32 C          58.7571   87.8695    7.2148 C.3     1  UNL1        0.0900
     33 N          59.0355   89.3435    7.2244 N.3     1  UNL1       -0.2635
     34 C          59.8782   89.9406    8.3122 C.3     1  UNL1        0.0980
     35 C          60.4426   89.0637    9.3904 C.3     1  UNL1        0.1510
     36 C          61.2853   89.6607   10.4782 C.2     1  UNL1        0.2386
     37 O          60.8499   89.5519   11.9095 O.2     1  UNL1       -0.2736
     38 N          62.5636   90.3666   10.1348 N.am    1  UNL1       -0.2961
     39 H          62.8494   90.4380    9.1954 H       1  UNL1        0.1497
     40 C          63.4063   90.9636   11.2226 C.3     1  UNL1        0.1939
     41 C          64.3813   92.0574   10.9012 C.3     1  UNL1        0.4154
     42 F          65.3562   93.1511   10.5798 F       1  UNL1       -0.1682
     43 F          65.2136   91.6634   12.0852 F       1  UNL1       -0.1682
     44 F          63.5489   92.4514    9.7172 F       1  UNL1       -0.1682
     45 C          58.4710   90.2204    6.1462 C.3     1  UNL1        0.1377
     46 C          59.3910   90.9190    5.1893 C.ar    1  UNL1        0.1390
     47 C          59.0257   92.0639    4.2918 C.ar    1  UNL1        0.0374
     48 C          60.2468   92.4478    3.5098 C.ar    1  UNL1        0.0373
     49 C          60.4835   93.5066    2.4740 C.ar    1  UNL1        0.0031
     50 C          61.8404   93.6577    1.8524 C.ar    1  UNL1        0.0002
     51 C          62.9604   92.7500    2.2667 C.ar    1  UNL1        0.0031
     52 C          62.7236   91.6912    3.3025 C.ar    1  UNL1        0.0375
     53 C          61.3669   91.5401    3.9240 C.ar    1  UNL1        0.1449
     54 O          60.8380   90.5952    4.9620 O.2     1  UNL1       -0.4564
@<TRIPOS>BOND
     1     6     7    2
     2     7     8   am
     3    10     8    1
     4    10    11    1
     5    11    12   ar
     6    12    13   ar
     7    13    14   ar
     8    14    15   ar
     9    15    16   ar
    10    16    17    1
    11    17    18    1
    12    18    19    1
    13    19    20    1
    14     7     5    1
    15     5    22    1
    16    22    23    1
    17    23    24   ar
    18    24    25   ar
    19    25    26   ar
    20    26    27   ar
    21    27    28   ar
    22     5     4    1
    23     4     1    1
    24     1     2    1
    25     1    29    1
    26    29    30    1
    27    30    31    1
    28    31    32    1
    29    32    33    1
    30    33    45    1
    31    45    46    1
    32    46    47   ar
    33    47    48   ar
    34    48    49   ar
    35    49    50   ar
    36    50    51   ar
    37    51    52   ar
    38    52    53   ar
    39    53    54   ar
    40    33    34    1
    41    34    35    1
    42    35    36    1
    43    36    37    2
    44    36    38   am
    45    38    40    1
    46    40    41    1
    47    41    42    1
    48    41    43    1
    49    41    44    1
    50    19    10    1
    51    28    23   ar
    52    35    30    1
    53    16    11   ar
    54    54    46   ar
    55    53    48   ar
    56     8     9    1
    57    20    21    1
    58     2     3    1
    59    38    39    1
@<TRIPOS>MOLECULE
*****
 54 59 0 0 0
SMALL
GASTEIGER

@<TRIPOS>ATOM
      1 C          60.7758   90.4774   11.2921 C.3     1  UNL1        0.1269
      2 O          59.6729   90.3892   12.3049 O.3     1  UNL1       -0.3830
      3 H          58.9695   89.8128   11.9675 H       1  UNL1        0.2104
      4 C          61.9888   91.3133   11.5751 C.3     1  UNL1        0.0401
      5 C          63.1314   90.7365   12.3571 C.3     1  UNL1        0.0833
      6 O          61.4925   89.8093   14.1472 O.2     1  UNL1       -0.2751
      7 C          62.8612   89.8475   13.5348 C.2     1  UNL1        0.2226
      8 N          63.9598   88.9968   14.0999 N.am    1  UNL1       -0.2999
      9 H          64.8581   89.0219   13.6979 H       1  UNL1        0.1498
     10 C          63.6897   88.1078   15.2775 C.3     1  UNL1        0.1278
     11 C          63.8917   86.6261   15.1607 C.ar    1  UNL1        0.0320
     12 C          64.3639   86.0333   13.8662 C.ar    1  UNL1        0.0004
     13 C          64.5660   84.5516   13.7494 C.ar    1  UNL1       -0.0001
     14 C          64.2958   83.6626   14.9270 C.ar    1  UNL1        0.0031
     15 C          63.8237   84.2554   16.2214 C.ar    1  UNL1        0.0366
     16 C          63.6216   85.7372   16.3383 C.ar    1  UNL1        0.1362
     17 O          63.1494   86.3300   17.6328 O.3     1  UNL1       -0.4730
     18 C          62.9473   87.8117   17.7496 C.3     1  UNL1        0.2364
     19 C          63.2175   88.7006   16.5719 C.3     1  UNL1        0.1762
     20 O          63.0154   90.1824   16.6888 O.3     1  UNL1       -0.3788
     21 H          62.7106   90.3975   17.5841 H       1  UNL1        0.2106
     22 C          64.5443   91.0485   11.9615 C.3     1  UNL1        0.0371
     23 C          65.3587   92.0052   12.7809 C.ar    1  UNL1       -0.0025
     24 C          65.7702   91.6363   14.1754 C.ar    1  UNL1       -0.0011
     25 C          66.5847   92.5930   14.9949 C.ar    1  UNL1        0.0204
     26 C          66.9875   93.9185   14.4198 C.ar    1  UNL1        0.0989
     27 N          66.5760   94.2874   13.0253 N.ar    1  UNL1       -0.2426
     28 C          65.7616   93.3307   12.2059 C.ar    1  UNL1        0.0946
     29 C          60.6659   89.7297    9.9964 C.3     1  UNL1        0.1021
     30 N          61.2885   88.3720    9.8588 N.3     1  UNL1       -0.2621
     31 C          62.3469   87.9308   10.8259 C.3     1  UNL1        0.0901
     32 C          62.9695   86.5730   10.6883 C.3     1  UNL1        0.0900
     33 N          62.5337   85.6565    9.5837 N.3     1  UNL1       -0.2635
     34 C          61.4753   86.0978    8.6167 C.3     1  UNL1        0.0980
     35 C          60.8528   87.4555    8.7542 C.3     1  UNL1        0.1510
     36 C          59.7944   87.8968    7.7872 C.2     1  UNL1        0.2386
     37 O          58.6493   86.9845    7.4609 O.2     1  UNL1       -0.2736
     38 N          59.8812   89.2503    7.1465 N.am    1  UNL1       -0.2961
     39 H          60.6327   89.8490    7.3607 H       1  UNL1        0.1497
     40 C          58.8228   89.6916    6.1795 C.3     1  UNL1        0.1939
     41 C          59.0198   90.9387    5.3696 C.3     1  UNL1        0.4154
     42 F          59.2168   92.1858    4.5598 F       1  UNL1       -0.1682
     43 F          57.5493   91.2234    5.4503 F       1  UNL1       -0.1682
     44 F          60.4903   90.6541    5.2890 F       1  UNL1       -0.1682
     45 C          63.1563   84.2988    9.4461 C.3     1  UNL1        0.1377
     46 C          62.8978   83.2466   10.4835 C.ar    1  UNL1        0.1390
     47 C          63.2378   81.7904   10.3661 C.ar    1  UNL1        0.0374
     48 C          62.8041   81.1097   11.6305 C.ar    1  UNL1        0.0373
     49 C          62.8843   79.6807   12.0795 C.ar    1  UNL1        0.0031
     50 C          62.3564   79.2873   13.4274 C.ar    1  UNL1        0.0002
     51 C          61.7484   80.3229   14.3261 C.ar    1  UNL1        0.0031
     52 C          61.6682   81.7519   13.8771 C.ar    1  UNL1        0.0375
     53 C          62.1961   82.1453   12.5294 C.ar    1  UNL1        0.1449
     54 O          62.2540   83.4659   11.8205 O.2     1  UNL1       -0.4564
@<TRIPOS>BOND
     1     6     7    2
     2     7     8   am
     3    10     8    1
     4    10    11    1
     5    11    12   ar
     6    12    13   ar
     7    13    14   ar
     8    14    15   ar
     9    15    16   ar
    10    16    17    1
    11    17    18    1
    12    18    19    1
    13    19    20    1
    14     7     5    1
    15     5    22    1
    16    22    23    1
    17    23    24   ar
    18    24    25   ar
    19    25    26   ar
    20    26    27   ar
    21    27    28   ar
    22     5     4    1
    23     4     1    1
    24     1     2    1
    25     1    29    1
    26    29    30    1
    27    30    31    1
    28    31    32    1
    29    32    33    1
    30    33    45    1
    31    45    46    1
    32    46    47   ar
    33    47    48   ar
    34    48    49   ar
    35    49    50   ar
    36    50    51   ar
    37    51    52   ar
    38    52    53   ar
    39    53    54   ar
    40    33    34    1
    41    34    35    1
    42    35    36    1
    43    36    37    2
    44    36    38   am
    45    38    40    1
    46    40    41    1
    47    41    42    1
    48    41    43    1
    49    41    44    1
    50    19    10    1
    51    28    23   ar
    52    35    30    1
    53    16    11   ar
    54    54    46   ar
    55    53    48   ar
    56     8     9    1
    57    20    21    1
    58     2     3    1
    59    38    39    1
@<TRIPOS>MOLECULE
*****
 54 59 0 0 0
SMALL
GASTEIGER

@<TRIPOS>ATOM
      1 C          63.4377   89.3556   13.7349 C.3     1  UNL1        0.1269
      2 O          63.4574   89.0135   15.1953 O.3     1  UNL1       -0.3830
      3 H          63.5180   88.0512   15.3012 H       1  UNL1        0.2104
      4 C          63.3479   90.7888   13.3015 C.3     1  UNL1        0.0401
      5 C          64.5311   91.6966   13.4625 C.3     1  UNL1        0.0833
      6 O          64.7354   92.0073   10.8912 O.2     1  UNL1       -0.2751
      7 C          65.0539   92.4635   12.2841 C.2     1  UNL1        0.2226
      8 N          65.8952   93.6867   12.4988 N.am    1  UNL1       -0.2999
      9 H          66.1042   93.9861   13.4131 H       1  UNL1        0.1498
     10 C          66.4180   94.4536   11.3205 C.3     1  UNL1        0.1278
     11 C          67.2333   93.7552   10.2729 C.ar    1  UNL1        0.0320
     12 C          67.5257   92.2898   10.4035 C.ar    1  UNL1        0.0004
     13 C          68.3410   91.5914    9.3559 C.ar    1  UNL1       -0.0001
     14 C          68.8638   92.3584    8.1776 C.ar    1  UNL1        0.0031
     15 C          68.5713   93.8237    8.0470 C.ar    1  UNL1        0.0366
     16 C          67.7561   94.5222    9.0946 C.ar    1  UNL1        0.1362
     17 O          67.4636   95.9876    8.9639 O.3     1  UNL1       -0.4730
     18 C          66.6483   96.6860   10.0115 C.3     1  UNL1        0.2364
     19 C          66.1255   95.9190   11.1898 C.3     1  UNL1        0.1762
     20 O          65.3102   96.6174   12.2375 O.3     1  UNL1       -0.3788
     21 H          65.2156   97.5538   12.0025 H       1  UNL1        0.2106
     22 C          65.1915   91.8375   14.8019 C.3     1  UNL1        0.0371
     23 C          66.6497   92.1785   14.8870 C.ar    1  UNL1       -0.0025
     24 C          67.1489   93.0683   15.9865 C.ar    1  UNL1       -0.0011
     25 C          68.6072   93.4093   16.0715 C.ar    1  UNL1        0.0204
     26 C          69.5662   92.8605   15.0571 C.ar    1  UNL1        0.0989
     27 N          69.0669   91.9706   13.9576 N.ar    1  UNL1       -0.2426
     28 C          67.6087   91.6296   13.8725 C.ar    1  UNL1        0.0946
     29 C          63.5078   88.2644   12.7080 C.3     1  UNL1        0.1021
     30 N          62.4789   88.1923   11.6189 N.3     1  UNL1       -0.2621
     31 C          61.9443   89.4535   11.0075 C.3     1  UNL1        0.0901
     32 C          60.9155   89.3814    9.9184 C.3     1  UNL1        0.0900
     33 N          60.4212   88.0482    9.4406 N.3     1  UNL1       -0.2635
     34 C          60.9558   86.7871   10.0520 C.3     1  UNL1        0.0980
     35 C          61.9847   86.8591   11.1411 C.3     1  UNL1        0.1510
     36 C          62.5193   85.5981   11.7525 C.2     1  UNL1        0.2386
     37 O          62.2926   85.3156   13.2081 O.2     1  UNL1       -0.2736
     38 N          63.2806   84.6194   10.9082 N.am    1  UNL1       -0.2961
     39 H          63.4294   84.8048    9.9528 H       1  UNL1        0.1497
     40 C          63.8152   83.3583   11.5196 C.3     1  UNL1        0.1939
     41 C          63.4721   82.0284   10.9165 C.3     1  UNL1        0.4154
     42 F          63.1290   80.6985   10.3134 F       1  UNL1       -0.1682
     43 F          62.3267   81.8892   11.8750 F       1  UNL1       -0.1682
     44 F          64.6174   82.1676    9.9580 F       1  UNL1       -0.1682
     45 C          59.3923   87.9761    8.3515 C.3     1  UNL1        0.1377
     46 C          59.3862   89.0013    7.2564 C.ar    1  UNL1        0.1390
     47 C          58.1733   89.6738    6.6850 C.ar    1  UNL1        0.0374
     48 C          58.6295   90.6221    5.6160 C.ar    1  UNL1        0.0373
     49 C          57.8768   91.5531    4.7124 C.ar    1  UNL1        0.0031
     50 C          58.6191   92.3977    3.7194 C.ar    1  UNL1        0.0002
     51 C          60.1139   92.3112    3.6302 C.ar    1  UNL1        0.0031
     52 C          60.8665   91.3801    4.5339 C.ar    1  UNL1        0.0375
     53 C          60.1244   90.5356    5.5268 C.ar    1  UNL1        0.1449
     54 O          60.5920   89.5339    6.5406 O.2     1  UNL1       -0.4564
@<TRIPOS>BOND
     1     6     7    2
     2     7     8   am
     3    10     8    1
     4    10    11    1
     5    11    12   ar
     6    12    13   ar
     7    13    14   ar
     8    14    15   ar
     9    15    16   ar
    10    16    17    1
    11    17    18    1
    12    18    19    1
    13    19    20    1
    14     7     5    1
    15     5    22    1
    16    22    23    1
    17    23    24   ar
    18    24    25   ar
    19    25    26   ar
    20    26    27   ar
    21    27    28   ar
    22     5     4    1
    23     4     1    1
    24     1     2    1
    25     1    29    1
    26    29    30    1
    27    30    31    1
    28    31    32    1
    29    32    33    1
    30    33    45    1
    31    45    46    1
    32    46    47   ar
    33    47    48   ar
    34    48    49   ar
    35    49    50   ar
    36    50    51   ar
    37    51    52   ar
    38    52    53   ar
    39    53    54   ar
    40    33    34    1
    41    34    35    1
    42    35    36    1
    43    36    37    2
    44    36    38   am
    45    38    40    1
    46    40    41    1
    47    41    42    1
    48    41    43    1
    49    41    44    1
    50    19    10    1
    51    28    23   ar
    52    35    30    1
    53    16    11   ar
    54    54    46   ar
    55    53    48   ar
    56     8     9    1
    57    20    21    1
    58     2     3    1
    59    38    39    1
@<TRIPOS>MOLECULE
*****
 54 59 0 0 0
SMALL
GASTEIGER

@<TRIPOS>ATOM
      1 C          61.9611   90.3363   10.9154 C.3     1  UNL1        0.1269
      2 O          60.7414   91.2027   11.0231 O.3     1  UNL1       -0.3830
      3 H          60.7836   91.7200   11.8426 H       1  UNL1        0.2104
      4 C          62.1376   89.4336    9.7305 C.3     1  UNL1        0.0401
      5 C          60.9367   88.8542    9.0436 C.3     1  UNL1        0.0833
      6 O          59.1855   90.7416    8.6955 O.2     1  UNL1       -0.2751
      7 C          60.1122   89.7084    8.1267 C.2     1  UNL1        0.2226
      8 N          60.2145   89.5293    6.6409 N.am    1  UNL1       -0.2999
      9 H          60.8228   88.8511    6.2676 H       1  UNL1        0.1498
     10 C          59.3901   90.3835    5.7240 C.3     1  UNL1        0.1278
     11 C          60.0588   91.2099    4.6658 C.ar    1  UNL1        0.0320
     12 C          61.5518   91.1822    4.5244 C.ar    1  UNL1        0.0004
     13 C          62.2205   92.0086    3.4662 C.ar    1  UNL1       -0.0001
     14 C          61.3961   92.8628    2.5493 C.ar    1  UNL1        0.0031
     15 C          59.9030   92.8905    2.6906 C.ar    1  UNL1        0.0366
     16 C          59.2344   92.0641    3.7489 C.ar    1  UNL1        0.1362
     17 O          57.7413   92.0918    3.8902 O.3     1  UNL1       -0.4730
     18 C          57.0726   91.2653    4.9485 C.3     1  UNL1        0.2364
     19 C          57.8971   90.4112    5.8654 C.3     1  UNL1        0.1762
     20 O          57.2285   89.5847    6.9236 O.3     1  UNL1       -0.3788
     21 H          56.2686   89.7170    6.8787 H       1  UNL1        0.2106
     22 C          60.5601   87.4205    9.2735 C.3     1  UNL1        0.0371
     23 C          61.0860   86.3515    8.3622 C.ar    1  UNL1       -0.0025
     24 C          62.5008   85.8738    8.5045 C.ar    1  UNL1       -0.0011
     25 C          63.0267   84.8048    7.5932 C.ar    1  UNL1        0.0204
     26 C          62.1379   84.2134    6.5395 C.ar    1  UNL1        0.0989
     27 N          60.7231   84.6911    6.3972 N.ar    1  UNL1       -0.2426
     28 C          60.1972   85.7601    7.3085 C.ar    1  UNL1        0.0946
     29 C          63.0044   90.3726   11.9926 C.3     1  UNL1        0.1021
     30 N          63.3420   89.1240   12.7522 N.3     1  UNL1       -0.2621
     31 C          62.9299   87.7852   12.2156 C.3     1  UNL1        0.0901
     32 C          63.2674   86.5365   12.9751 C.3     1  UNL1        0.0900
     33 N          64.0171   86.6267   14.2713 N.3     1  UNL1       -0.2635
     34 C          64.4291   87.9654   14.8078 C.3     1  UNL1        0.0980
     35 C          64.0916   89.2141   14.0483 C.3     1  UNL1        0.1510
     36 C          64.5036   90.5528   14.5848 C.2     1  UNL1        0.2386
     37 O          63.5851   91.3102   15.4973 O.2     1  UNL1       -0.2736
     38 N          65.8343   91.1343   14.2088 N.am    1  UNL1       -0.2961
     39 H          66.4372   90.6372   13.6099 H       1  UNL1        0.1497
     40 C          66.2464   92.4730   14.7454 C.3     1  UNL1        0.1939
     41 C          67.4627   92.5903   15.6154 C.3     1  UNL1        0.4154
     42 F          68.6790   92.7076   16.4854 F       1  UNL1       -0.1682
     43 F          68.3405   92.4436   14.4080 F       1  UNL1       -0.1682
     44 F          66.5849   92.7371   16.8228 F       1  UNL1       -0.1682
     45 C          64.3546   85.3780   15.0308 C.3     1  UNL1        0.1377
     46 C          63.7857   84.0595   14.5973 C.ar    1  UNL1        0.1390
     47 C          62.4903   83.4627   15.0617 C.ar    1  UNL1        0.0374
     48 C          62.3163   82.1407   14.3747 C.ar    1  UNL1        0.0373
     49 C          61.2297   81.1089   14.4437 C.ar    1  UNL1        0.0031
     50 C          61.3310   79.8570   13.6236 C.ar    1  UNL1        0.0002
     51 C          62.5188   79.6369   12.7345 C.ar    1  UNL1        0.0031
     52 C          63.6054   80.6686   12.6654 C.ar    1  UNL1        0.0375
     53 C          63.5042   81.9205   13.4855 C.ar    1  UNL1        0.1449
     54 O          64.4123   83.1064   13.6231 O.2     1  UNL1       -0.4564
@<TRIPOS>BOND
     1     6     7    2
     2     7     8   am
     3    10     8    1
     4    10    11    1
     5    11    12   ar
     6    12    13   ar
     7    13    14   ar
     8    14    15   ar
     9    15    16   ar
    10    16    17    1
    11    17    18    1
    12    18    19    1
    13    19    20    1
    14     7     5    1
    15     5    22    1
    16    22    23    1
    17    23    24   ar
    18    24    25   ar
    19    25    26   ar
    20    26    27   ar
    21    27    28   ar
    22     5     4    1
    23     4     1    1
    24     1     2    1
    25     1    29    1
    26    29    30    1
    27    30    31    1
    28    31    32    1
    29    32    33    1
    30    33    45    1
    31    45    46    1
    32    46    47   ar
    33    47    48   ar
    34    48    49   ar
    35    49    50   ar
    36    50    51   ar
    37    51    52   ar
    38    52    53   ar
    39    53    54   ar
    40    33    34    1
    41    34    35    1
    42    35    36    1
    43    36    37    2
    44    36    38   am
    45    38    40    1
    46    40    41    1
    47    41    42    1
    48    41    43    1
    49    41    44    1
    50    19    10    1
    51    28    23   ar
    52    35    30    1
    53    16    11   ar
    54    54    46   ar
    55    53    48   ar
    56     8     9    1
    57    20    21    1
    58     2     3    1
    59    38    39    1
@<TRIPOS>MOLECULE
*****
 54 59 0 0 0
SMALL
GASTEIGER

@<TRIPOS>ATOM
      1 C          62.6809   88.4879   12.2333 C.3     1  UNL1        0.1269
      2 O          62.1289   89.8731   12.3966 O.3     1  UNL1       -0.3830
      3 H          61.3941   90.0034   11.7770 H       1  UNL1        0.2104
      4 C          63.8317   88.0343   13.0817 C.3     1  UNL1        0.0401
      5 C          64.1196   88.7204   14.3841 C.3     1  UNL1        0.0833
      6 O          63.5585   91.2221   14.8046 O.2     1  UNL1       -0.2751
      7 C          64.5371   90.1612   14.3966 C.2     1  UNL1        0.2226
      8 N          65.9333   90.5408   14.0011 N.am    1  UNL1       -0.2999
      9 H          66.5757   89.8445   13.7333 H       1  UNL1        0.1498
     10 C          66.3509   91.9815   14.0136 C.3     1  UNL1        0.1278
     11 C          66.0745   92.8528   12.8244 C.ar    1  UNL1        0.0320
     12 C          65.3805   92.2835   11.6226 C.ar    1  UNL1        0.0004
     13 C          65.1040   93.1549   10.4334 C.ar    1  UNL1       -0.0001
     14 C          65.5216   94.5955   10.4459 C.ar    1  UNL1        0.0031
     15 C          66.2156   95.1648   11.6476 C.ar    1  UNL1        0.0366
     16 C          66.4920   94.2934   12.8369 C.ar    1  UNL1        0.1362
     17 O          67.1860   94.8628   14.0387 O.3     1  UNL1       -0.4730
     18 C          67.4625   93.9914   15.2279 C.3     1  UNL1        0.2364
     19 C          67.0449   92.5507   15.2154 C.3     1  UNL1        0.1762
     20 O          67.3213   91.6794   16.4046 O.3     1  UNL1       -0.3788
     21 H          67.7722   92.1990   17.0884 H       1  UNL1        0.2106
     22 C          63.9900   87.9659   15.6740 C.3     1  UNL1        0.0371
     23 C          63.7904   86.4794   15.6566 C.ar    1  UNL1       -0.0025
     24 C          64.7332   85.6051   14.8841 C.ar    1  UNL1       -0.0011
     25 C          64.5337   84.1185   14.8667 C.ar    1  UNL1        0.0204
     26 C          63.3913   83.5063   15.6218 C.ar    1  UNL1        0.0989
     27 N          62.4485   84.3805   16.3943 N.ar    1  UNL1       -0.2426
     28 C          62.6481   85.8671   16.4117 C.ar    1  UNL1        0.0946
     29 C          62.0820   87.5563   11.2216 C.3     1  UNL1        0.1021
     30 N          61.2690   88.1042   10.0864 N.3     1  UNL1       -0.2621
     31 C          60.5717   89.4244   10.2319 C.3     1  UNL1        0.0901
     32 C          59.7587   89.9723    9.0966 C.3     1  UNL1        0.0900
     33 N          59.6429   89.2001    7.8159 N.3     1  UNL1       -0.2635
     34 C          60.3401   87.8800    7.6704 C.3     1  UNL1        0.0980
     35 C          61.1531   87.3320    8.8056 C.3     1  UNL1        0.1510
     36 C          61.8503   86.0119    8.6602 C.2     1  UNL1        0.2386
     37 O          61.7698   85.2600    7.3648 O.2     1  UNL1       -0.2736
     38 N          62.6280   85.4437    9.8102 N.am    1  UNL1       -0.2961
     39 H          62.6808   85.9372   10.6604 H       1  UNL1        0.1497
     40 C          63.3252   84.1236    9.6647 C.3     1  UNL1        0.1939
     41 C          63.8333   83.4058   10.8799 C.3     1  UNL1        0.4154
     42 F          64.3413   82.6880   12.0951 F       1  UNL1       -0.1682
     43 F          63.0330   84.3231   11.7564 F       1  UNL1       -0.1682
     44 F          64.6335   82.4885   10.0035 F       1  UNL1       -0.1682
     45 C          58.8299   89.7480    6.6806 C.3     1  UNL1        0.1377
     46 C          59.4909   90.5663    5.6112 C.ar    1  UNL1        0.1390
     47 C          58.8383   91.6412    4.7935 C.ar    1  UNL1        0.0374
     48 C          59.8646   92.1925    3.8488 C.ar    1  UNL1        0.0373
     49 C          59.7936   93.2682    2.8058 C.ar    1  UNL1        0.0031
     50 C          61.0096   93.6098    1.9965 C.ar    1  UNL1        0.0002
     51 C          62.2965   92.8756    2.2303 C.ar    1  UNL1        0.0031
     52 C          62.3676   91.7999    3.2733 C.ar    1  UNL1        0.0375
     53 C          61.1517   91.4583    4.0825 C.ar    1  UNL1        0.1449
     54 O          60.9207   90.4533    5.1717 O.2     1  UNL1       -0.4564
@<TRIPOS>BOND
     1     6     7    2
     2     7     8   am
     3    10     8    1
     4    10    11    1
     5    11    12   ar
     6    12    13   ar
     7    13    14   ar
     8    14    15   ar
     9    15    16   ar
    10    16    17    1
    11    17    18    1
    12    18    19    1
    13    19    20    1
    14     7     5    1
    15     5    22    1
    16    22    23    1
    17    23    24   ar
    18    24    25   ar
    19    25    26   ar
    20    26    27   ar
    21    27    28   ar
    22     5     4    1
    23     4     1    1
    24     1     2    1
    25     1    29    1
    26    29    30    1
    27    30    31    1
    28    31    32    1
    29    32    33    1
    30    33    45    1
    31    45    46    1
    32    46    47   ar
    33    47    48   ar
    34    48    49   ar
    35    49    50   ar
    36    50    51   ar
    37    51    52   ar
    38    52    53   ar
    39    53    54   ar
    40    33    34    1
    41    34    35    1
    42    35    36    1
    43    36    37    2
    44    36    38   am
    45    38    40    1
    46    40    41    1
    47    41    42    1
    48    41    43    1
    49    41    44    1
    50    19    10    1
    51    28    23   ar
    52    35    30    1
    53    16    11   ar
    54    54    46   ar
    55    53    48   ar
    56     8     9    1
    57    20    21    1
    58     2     3    1
    59    38    39    1
@<TRIPOS>MOLECULE
*****
 54 59 0 0 0
SMALL
GASTEIGER

@<TRIPOS>ATOM
      1 C          62.6232   88.5368   11.7481 C.3     1  UNL1        0.1269
      2 O          62.7973   89.9976   11.4552 O.3     1  UNL1       -0.3830
      3 H          62.1315   90.2793   10.8085 H       1  UNL1        0.2104
      4 C          63.5351   87.8535   12.7235 C.3     1  UNL1        0.0401
      5 C          63.9213   88.5426   13.9985 C.3     1  UNL1        0.0833
      6 O          63.6415   90.9674   14.8886 O.2     1  UNL1       -0.2751
      7 C          64.3215   89.9881   13.9784 C.2     1  UNL1        0.2226
      8 N          65.4018   90.4543   13.0480 N.am    1  UNL1       -0.2999
      9 H          65.8482   89.8115   12.4506 H       1  UNL1        0.1498
     10 C          65.8021   91.8997   13.0278 C.3     1  UNL1        0.1278
     11 C          66.6893   92.4474   14.1062 C.ar    1  UNL1        0.0320
     12 C          67.1763   91.5497   15.2047 C.ar    1  UNL1        0.0004
     13 C          68.0636   92.0974   16.2831 C.ar    1  UNL1       -0.0001
     14 C          68.4638   93.5428   16.2629 C.ar    1  UNL1        0.0031
     15 C          67.9768   94.4406   15.1643 C.ar    1  UNL1        0.0366
     16 C          67.0896   93.8929   14.0860 C.ar    1  UNL1        0.1362
     17 O          66.6026   94.7907   12.9874 O.3     1  UNL1       -0.4730
     18 C          65.7154   94.2430   11.9091 C.3     1  UNL1        0.2364
     19 C          65.3151   92.7975   11.9293 C.3     1  UNL1        0.1762
     20 O          64.4279   92.2498   10.8509 O.3     1  UNL1       -0.3788
     21 H          64.2061   92.9566   10.2247 H       1  UNL1        0.2106
     22 C          63.9072   87.7863   15.2938 C.3     1  UNL1        0.0371
     23 C          63.9204   86.2864   15.2867 C.ar    1  UNL1       -0.0025
     24 C          65.0225   85.5493   14.5854 C.ar    1  UNL1       -0.0011
     25 C          65.0356   84.0493   14.5783 C.ar    1  UNL1        0.0204
     26 C          63.9465   83.2865   15.2725 C.ar    1  UNL1        0.0989
     27 N          62.8443   84.0236   15.9739 N.ar    1  UNL1       -0.2426
     28 C          62.8312   85.5235   15.9810 C.ar    1  UNL1        0.0946
     29 C          61.5370   87.7593   11.0654 C.3     1  UNL1        0.1021
     30 N          60.8421   88.3350    9.8673 N.3     1  UNL1       -0.2621
     31 C          60.2112   89.6937    9.9471 C.3     1  UNL1        0.0901
     32 C          59.5163   90.2694    8.7490 C.3     1  UNL1        0.0900
     33 N          59.4522   89.4866    7.4710 N.3     1  UNL1       -0.2635
     34 C          60.0830   88.1280    7.3913 C.3     1  UNL1        0.0980
     35 C          60.7779   87.5523    8.5894 C.3     1  UNL1        0.1510
     36 C          61.4087   86.1937    8.5096 C.2     1  UNL1        0.2386
     37 O          60.8876   85.1809    7.5336 O.2     1  UNL1       -0.2736
     38 N          62.5608   85.8479    9.4059 N.am    1  UNL1       -0.2961
     39 H          62.9029   86.5126   10.0465 H       1  UNL1        0.1497
     40 C          63.1916   84.4894    9.3261 C.3     1  UNL1        0.1939
     41 C          63.5677   83.7621   10.5830 C.3     1  UNL1        0.4154
     42 F          63.9437   83.0348   11.8399 F       1  UNL1       -0.1682
     43 F          64.3595   82.7765    9.7758 F       1  UNL1       -0.1682
     44 F          62.7759   84.7477   11.3902 F       1  UNL1       -0.1682
     45 C          58.7572   90.0623    6.2729 C.3     1  UNL1        0.1377
     46 C          59.5355   90.8500    5.2610 C.ar    1  UNL1        0.1390
     47 C          59.0020   91.9654    4.4118 C.ar    1  UNL1        0.0374
     48 C          60.1207   92.4652    3.5467 C.ar    1  UNL1        0.0373
     49 C          60.1823   93.5506    2.5131 C.ar    1  UNL1        0.0031
     50 C          61.4689   93.8294    1.7940 C.ar    1  UNL1        0.0002
     51 C          62.6939   93.0228    2.1085 C.ar    1  UNL1        0.0031
     52 C          62.6323   91.9375    3.1420 C.ar    1  UNL1        0.0375
     53 C          61.3458   91.6587    3.8611 C.ar    1  UNL1        0.1449
     54 O          60.9841   90.6604    4.9206 O.2     1  UNL1       -0.4564
@<TRIPOS>BOND
     1     6     7    2
     2     7     8   am
     3    10     8    1
     4    10    11    1
     5    11    12   ar
     6    12    13   ar
     7    13    14   ar
     8    14    15   ar
     9    15    16   ar
    10    16    17    1
    11    17    18    1
    12    18    19    1
    13    19    20    1
    14     7     5    1
    15     5    22    1
    16    22    23    1
    17    23    24   ar
    18    24    25   ar
    19    25    26   ar
    20    26    27   ar
    21    27    28   ar
    22     5     4    1
    23     4     1    1
    24     1     2    1
    25     1    29    1
    26    29    30    1
    27    30    31    1
    28    31    32    1
    29    32    33    1
    30    33    45    1
    31    45    46    1
    32    46    47   ar
    33    47    48   ar
    34    48    49   ar
    35    49    50   ar
    36    50    51   ar
    37    51    52   ar
    38    52    53   ar
    39    53    54   ar
    40    33    34    1
    41    34    35    1
    42    35    36    1
    43    36    37    2
    44    36    38   am
    45    38    40    1
    46    40    41    1
    47    41    42    1
    48    41    43    1
    49    41    44    1
    50    19    10    1
    51    28    23   ar
    52    35    30    1
    53    16    11   ar
    54    54    46   ar
    55    53    48   ar
    56     8     9    1
    57    20    21    1
    58     2     3    1
    59    38    39    1
@<TRIPOS>MOLECULE
*****
 54 59 0 0 0
SMALL
GASTEIGER

@<TRIPOS>ATOM
      1 C          61.8123   86.4663   10.9029 C.3     1  UNL1        0.1269
      2 O          61.6530   85.0665   10.3882 O.3     1  UNL1       -0.3830
      3 H          60.7269   84.9159   10.1420 H       1  UNL1        0.2104
      4 C          63.1586   86.9515   11.3524 C.3     1  UNL1        0.0401
      5 C          63.4875   87.0028   12.8150 C.3     1  UNL1        0.0833
      6 O          62.3169   89.2607   13.3459 O.2     1  UNL1       -0.2751
      7 C          63.4633   88.3138   13.5436 C.2     1  UNL1        0.2226
      8 N          64.5856   88.6778   14.4698 N.am    1  UNL1       -0.2999
      9 H          65.3380   88.0564   14.5995 H       1  UNL1        0.1498
     10 C          64.5615   89.9887   15.1984 C.3     1  UNL1        0.1278
     11 C          65.6508   90.9942   14.9696 C.ar    1  UNL1        0.0320
     12 C          66.7643   90.6887   14.0121 C.ar    1  UNL1        0.0004
     13 C          67.8537   91.6941   13.7832 C.ar    1  UNL1       -0.0001
     14 C          67.8296   93.0051   14.5118 C.ar    1  UNL1        0.0031
     15 C          66.7161   93.3105   15.4693 C.ar    1  UNL1        0.0366
     16 C          65.6267   92.3051   15.6982 C.ar    1  UNL1        0.1362
     17 O          64.5132   92.6106   16.6557 O.3     1  UNL1       -0.4730
     18 C          63.4238   91.6052   16.8846 C.3     1  UNL1        0.2364
     19 C          63.4480   90.2942   16.1559 C.3     1  UNL1        0.1762
     20 O          62.3586   89.2888   16.3848 O.3     1  UNL1       -0.3788
     21 H          61.7233   89.6410   17.0276 H       1  UNL1        0.2106
     22 C          63.8405   85.7432   13.5490 C.3     1  UNL1        0.0371
     23 C          63.5992   84.4088   12.9079 C.ar    1  UNL1       -0.0025
     24 C          64.4821   83.9443   11.7877 C.ar    1  UNL1       -0.0011
     25 C          64.2408   82.6098   11.1466 C.ar    1  UNL1        0.0204
     26 C          63.1166   81.7399   11.6256 C.ar    1  UNL1        0.0989
     27 N          62.2337   82.2045   12.7457 N.ar    1  UNL1       -0.2426
     28 C          62.4750   83.5389   13.3869 C.ar    1  UNL1        0.0946
     29 C          60.6252   87.3810   10.9683 C.3     1  UNL1        0.1021
     30 N          60.1085   88.0297    9.7184 N.3     1  UNL1       -0.2621
     31 C          59.4122   87.2038    8.6776 C.3     1  UNL1        0.0901
     32 C          58.8955   87.8524    7.4276 C.3     1  UNL1        0.0900
     33 N          59.0751   89.3269    7.2185 N.3     1  UNL1       -0.2635
     34 C          59.7714   90.1527    8.2593 C.3     1  UNL1        0.0980
     35 C          60.2881   89.5041    9.5092 C.3     1  UNL1        0.1510
     36 C          60.9843   90.3299   10.5500 C.2     1  UNL1        0.2386
     37 O          60.2225   90.8361   11.7388 O.2     1  UNL1       -0.2736
     38 N          62.4424   90.6495   10.4019 N.am    1  UNL1       -0.2961
     39 H          62.9424   90.3172    9.6216 H       1  UNL1        0.1497
     40 C          63.1387   91.4753   11.4427 C.3     1  UNL1        0.1939
     41 C          64.5438   91.9460   11.2101 C.3     1  UNL1        0.4154
     42 F          65.9489   92.4168   10.9775 F       1  UNL1       -0.1682
     43 F          64.5962   92.4817   12.6102 F       1  UNL1       -0.1682
     44 F          64.4915   91.4104    9.8100 F       1  UNL1       -0.1682
     45 C          58.5584   89.9755    5.9686 C.3     1  UNL1        0.1377
     46 C          59.4936   90.7389    5.0781 C.ar    1  UNL1        0.1390
     47 C          59.1320   91.9173    4.2233 C.ar    1  UNL1        0.0374
     48 C          60.3694   92.3645    3.5030 C.ar    1  UNL1        0.0373
     49 C          60.6161   93.4766    2.5271 C.ar    1  UNL1        0.0031
     50 C          61.9891   93.6866    1.9607 C.ar    1  UNL1        0.0002
     51 C          63.1154   92.7846    2.3703 C.ar    1  UNL1        0.0031
     52 C          62.8687   91.6725    3.3463 C.ar    1  UNL1        0.0375
     53 C          61.4958   91.4625    3.9126 C.ar    1  UNL1        0.1449
     54 O          60.9544   90.4578    4.8861 O.2     1  UNL1       -0.4564
@<TRIPOS>BOND
     1     6     7    2
     2     7     8   am
     3    10     8    1
     4    10    11    1
     5    11    12   ar
     6    12    13   ar
     7    13    14   ar
     8    14    15   ar
     9    15    16   ar
    10    16    17    1
    11    17    18    1
    12    18    19    1
    13    19    20    1
    14     7     5    1
    15     5    22    1
    16    22    23    1
    17    23    24   ar
    18    24    25   ar
    19    25    26   ar
    20    26    27   ar
    21    27    28   ar
    22     5     4    1
    23     4     1    1
    24     1     2    1
    25     1    29    1
    26    29    30    1
    27    30    31    1
    28    31    32    1
    29    32    33    1
    30    33    45    1
    31    45    46    1
    32    46    47   ar
    33    47    48   ar
    34    48    49   ar
    35    49    50   ar
    36    50    51   ar
    37    51    52   ar
    38    52    53   ar
    39    53    54   ar
    40    33    34    1
    41    34    35    1
    42    35    36    1
    43    36    37    2
    44    36    38   am
    45    38    40    1
    46    40    41    1
    47    41    42    1
    48    41    43    1
    49    41    44    1
    50    19    10    1
    51    28    23   ar
    52    35    30    1
    53    16    11   ar
    54    54    46   ar
    55    53    48   ar
    56     8     9    1
    57    20    21    1
    58     2     3    1
    59    38    39    1
@<TRIPOS>MOLECULE
*****
 54 59 0 0 0
SMALL
GASTEIGER

@<TRIPOS>ATOM
      1 C          60.1258   88.9031   10.1020 C.3     1  UNL1        0.1269
      2 O          59.6426   89.6647    8.9035 O.3     1  UNL1       -0.3830
      3 H          59.7110   90.6167    9.0763 H       1  UNL1        0.2104
      4 C          60.1223   87.4031   10.0890 C.3     1  UNL1        0.0401
      5 C          61.4175   86.6495   10.1553 C.3     1  UNL1        0.0833
      6 O          61.1152   86.2626   12.7066 O.2     1  UNL1       -0.2751
      7 C          61.8059   85.9354   11.4160 C.2     1  UNL1        0.2226
      8 N          62.8851   84.8940   11.3859 N.am    1  UNL1       -0.2999
      9 H          63.3385   84.6792   10.5388 H       1  UNL1        0.1498
     10 C          63.2736   84.1799   12.6465 C.3     1  UNL1        0.1278
     11 C          63.1262   82.6901   12.7404 C.ar    1  UNL1        0.0320
     12 C          62.5902   81.9145   11.5738 C.ar    1  UNL1        0.0004
     13 C          62.4428   80.4247   11.6677 C.ar    1  UNL1       -0.0001
     14 C          62.8312   79.7106   12.9283 C.ar    1  UNL1        0.0031
     15 C          63.3672   80.4862   14.0949 C.ar    1  UNL1        0.0366
     16 C          63.5147   81.9760   14.0010 C.ar    1  UNL1        0.1362
     17 O          64.0506   82.7516   15.1677 O.3     1  UNL1       -0.4730
     18 C          64.1981   84.2414   15.0738 C.3     1  UNL1        0.2364
     19 C          63.8096   84.9555   13.8131 C.3     1  UNL1        0.1762
     20 O          63.9571   86.4453   13.7192 O.3     1  UNL1       -0.3788
     21 H          64.3143   86.7881   14.5533 H       1  UNL1        0.2106
     22 C          62.3243   86.6100    8.9611 C.3     1  UNL1        0.0371
     23 C          62.0038   85.7089    7.8056 C.ar    1  UNL1       -0.0025
     24 C          63.1086   85.0070    7.0730 C.ar    1  UNL1       -0.0011
     25 C          62.7881   84.1058    5.9174 C.ar    1  UNL1        0.0204
     26 C          61.3628   83.9066    5.4945 C.ar    1  UNL1        0.0989
     27 N          60.2580   84.6085    6.2271 N.ar    1  UNL1       -0.2426
     28 C          60.5785   85.5096    7.3827 C.ar    1  UNL1        0.0946
     29 C          60.6124   89.6414   11.3137 C.3     1  UNL1        0.1021
     30 N          61.9154   90.3832   11.2669 N.3     1  UNL1       -0.2621
     31 C          62.4014   90.9643    9.9722 C.3     1  UNL1        0.0901
     32 C          63.7043   91.7061    9.9254 C.3     1  UNL1        0.0900
     33 N          64.5212   91.8666   11.1733 N.3     1  UNL1       -0.2635
     34 C          64.0351   91.2855   12.4678 C.3     1  UNL1        0.0980
     35 C          62.7322   90.5437   12.5146 C.3     1  UNL1        0.1510
     36 C          62.2461   89.9626   13.8092 C.2     1  UNL1        0.2386
     37 O          60.8133   89.5420   13.9515 O.2     1  UNL1       -0.2736
     38 N          63.1929   89.8020   14.9616 N.am    1  UNL1       -0.2961
     39 H          64.1333   90.0780   14.8683 H       1  UNL1        0.1497
     40 C          62.7068   89.2208   16.2562 C.3     1  UNL1        0.1939
     41 C          63.1189   87.8356   16.6581 C.3     1  UNL1        0.4154
     42 F          63.5309   86.4504   17.0600 F       1  UNL1       -0.1682
     43 F          64.3682   87.9695   15.8388 F       1  UNL1       -0.1682
     44 F          61.8696   87.7017   17.4773 F       1  UNL1       -0.1682
     45 C          65.8241   92.6084   11.1264 C.3     1  UNL1        0.1377
     46 C          66.6473   92.7577   12.3715 C.ar    1  UNL1        0.1390
     47 C          67.5696   91.7247   12.9479 C.ar    1  UNL1        0.0374
     48 C          68.1850   92.2948   14.1914 C.ar    1  UNL1        0.0373
     49 C          69.1689   91.7315   15.1735 C.ar    1  UNL1        0.0031
     50 C          69.6107   92.5536   16.3479 C.ar    1  UNL1        0.0002
     51 C          69.0687   93.9389   16.5400 C.ar    1  UNL1        0.0031
     52 C          68.0848   94.5023   15.5579 C.ar    1  UNL1        0.0375
     53 C          67.6430   93.6803   14.3836 C.ar    1  UNL1        0.1449
     54 O          66.6926   93.9663   13.2588 O.2     1  UNL1       -0.4564
@<TRIPOS>BOND
     1     6     7    2
     2     7     8   am
     3    10     8    1
     4    10    11    1
     5    11    12   ar
     6    12    13   ar
     7    13    14   ar
     8    14    15   ar
     9    15    16   ar
    10    16    17    1
    11    17    18    1
    12    18    19    1
    13    19    20    1
    14     7     5    1
    15     5    22    1
    16    22    23    1
    17    23    24   ar
    18    24    25   ar
    19    25    26   ar
    20    26    27   ar
    21    27    28   ar
    22     5     4    1
    23     4     1    1
    24     1     2    1
    25     1    29    1
    26    29    30    1
    27    30    31    1
    28    31    32    1
    29    32    33    1
    30    33    45    1
    31    45    46    1
    32    46    47   ar
    33    47    48   ar
    34    48    49   ar
    35    49    50   ar
    36    50    51   ar
    37    51    52   ar
    38    52    53   ar
    39    53    54   ar
    40    33    34    1
    41    34    35    1
    42    35    36    1
    43    36    37    2
    44    36    38   am
    45    38    40    1
    46    40    41    1
    47    41    42    1
    48    41    43    1
    49    41    44    1
    50    19    10    1
    51    28    23   ar
    52    35    30    1
    53    16    11   ar
    54    54    46   ar
    55    53    48   ar
    56     8     9    1
    57    20    21    1
    58     2     3    1
    59    38    39    1
