@<TRIPOS>MOLECULE
*****
 31 33 0 0 0
SMALL
GASTEIGER

@<TRIPOS>ATOM
      1 C          63.8053   89.5106   15.2279 C.ar    1  UNL1        0.0008
      2 C          63.1094   89.3990   16.5520 C.ar    1  UNL1       -0.0024
      3 C          62.9641   88.0601   17.2124 C.ar    1  UNL1        0.0028
      4 C          63.5146   86.8328   16.5488 C.ar    1  UNL1        0.0369
      5 C          64.2105   86.9443   15.2247 C.ar    1  UNL1        0.1389
      6 C          64.3558   88.2832   14.5643 C.ar    1  UNL1        0.0343
      7 C          63.9506   90.8495   14.5674 C.3     1  UNL1        0.1239
      8 C          65.6156   92.3784   15.8481 C.2     1  UNL1        0.4055
      9 O          64.6618   92.4494   17.0036 O.2     1  UNL1       -0.2262
     10 N          65.2600   91.5785   14.6300 N.am    1  UNL1       -0.2366
     11 C          68.1958   92.3475   16.1516 C.3     1  UNL1        0.2573
     12 O          66.9251   93.1074   15.9107 O.3     1  UNL1       -0.4304
     13 C          66.2139   91.5076   13.4745 C.3     1  UNL1        0.1388
     14 C          66.0871   92.4769   12.3368 C.2     1  UNL1        0.0706
     15 O          65.2196   92.1424   11.1597 O.co2   1  UNL1       -0.5474
     16 O          66.8278   93.7806   12.3762 O.co2   1  UNL1       -0.5474
     17 O          64.7611   85.7169   14.5610 O.3     1  UNL1       -0.4689
     18 C          63.8284   84.6989   13.9748 C.3     1  UNL1        0.2537
     19 C          63.3274   84.8616   12.5703 C.ar    1  UNL1        0.1359
     20 N          62.4786   85.9891   12.0621 N.ar    1  UNL1       -0.2093
     21 C          62.2138   85.7497   10.6051 C.ar    1  UNL1        0.2290
     22 O          62.8991   84.4743   10.2129 O.2     1  UNL1       -0.4391
     23 C          63.5873   83.9254   11.4275 C.ar    1  UNL1        0.1421
     24 C          64.3938   82.6622   11.4885 C.3     1  UNL1        0.0740
     25 C          61.4057   86.6310    9.6994 C.ar    1  UNL1        0.0536
     26 C          60.6220   86.0291    8.5708 C.ar    1  UNL1        0.0055
     27 C          59.8139   86.9104    7.6651 C.ar    1  UNL1        0.0115
     28 C          59.7895   88.3935    7.8880 C.ar    1  UNL1        0.0577
     29 CL         58.9814   89.2748    6.9823 Cl      1  UNL1       -0.0822
     30 C          60.5732   88.9954    9.0166 C.ar    1  UNL1        0.0115
     31 C          61.3813   88.1141    9.9223 C.ar    1  UNL1        0.0055
@<TRIPOS>UNITY_ATOM_ATTR
15 1
charge -1
@<TRIPOS>BOND
     1    11    12    1
     2    12     8    1
     3     8     9    2
     4     8    10   am
     5    10    13    1
     6    13    14    1
     7    14    15   ar
     8    14    16   ar
     9    10     7    1
    10     7     1    1
    11     1     2   ar
    12     2     3   ar
    13     3     4   ar
    14     4     5   ar
    15     5    17    1
    16    17    18    1
    17    18    19    1
    18    19    20   ar
    19    20    21   ar
    20    21    25    1
    21    25    26   ar
    22    26    27   ar
    23    27    28   ar
    24    28    29    1
    25    28    30   ar
    26    30    31   ar
    27    21    22   ar
    28    22    23   ar
    29    23    24    1
    30     5     6   ar
    31     6     1   ar
    32    23    19   ar
    33    31    25   ar
@<TRIPOS>MOLECULE
*****
 31 33 0 0 0
SMALL
GASTEIGER

@<TRIPOS>ATOM
      1 C          63.7411   89.5444   14.8725 C.ar    1  UNL1        0.0008
      2 C          63.1362   89.5889   16.2444 C.ar    1  UNL1       -0.0024
      3 C          63.0492   88.3373   17.0666 C.ar    1  UNL1        0.0028
      4 C          63.5671   87.0413   16.5170 C.ar    1  UNL1        0.0369
      5 C          64.1720   86.9969   15.1451 C.ar    1  UNL1        0.1389
      6 C          64.2590   88.2484   14.3228 C.ar    1  UNL1        0.0343
      7 C          63.8281   90.7960   14.0502 C.3     1  UNL1        0.1239
      8 C          65.4025   91.8882   12.2957 C.2     1  UNL1        0.4055
      9 O          64.2962   91.8563   11.2832 O.2     1  UNL1       -0.2262
     10 N          65.1684   91.3580   13.6793 N.am    1  UNL1       -0.2366
     11 C          67.0298   92.8282   10.5017 C.3     1  UNL1        0.2573
     12 O          66.7428   92.4502   11.9247 O.3     1  UNL1       -0.4304
     13 C          66.2746   91.3899   14.6918 C.3     1  UNL1        0.1388
     14 C          66.4174   92.5676   15.6098 C.2     1  UNL1        0.0706
     15 O          67.4083   93.6485   15.2945 O.co2   1  UNL1       -0.5474
     16 O          65.5692   92.6642   16.8432 O.co2   1  UNL1       -0.5474
     17 O          64.6899   85.7009   14.5954 O.3     1  UNL1       -0.4689
     18 C          63.7387   84.7044   14.0020 C.3     1  UNL1        0.2537
     19 C          63.2547   84.8766   12.5926 C.ar    1  UNL1        0.1359
     20 N          62.4129   86.0082   12.0817 N.ar    1  UNL1       -0.2093
     21 C          62.1654   85.7785   10.6201 C.ar    1  UNL1        0.2290
     22 O          62.8542   84.5051   10.2279 O.2     1  UNL1       -0.4391
     23 C          63.5274   83.9477   11.4469 C.ar    1  UNL1        0.1421
     24 C          64.3321   82.6834   11.5094 C.3     1  UNL1        0.0740
     25 C          61.3689   86.6664    9.7106 C.ar    1  UNL1        0.0536
     26 C          60.5286   86.0656    8.6230 C.ar    1  UNL1        0.0055
     27 C          59.7322   86.9535    7.7135 C.ar    1  UNL1        0.0115
     28 C          59.7760   88.4422    7.8915 C.ar    1  UNL1        0.0577
     29 CL         58.9796   89.3301    6.9820 Cl      1  UNL1       -0.0822
     30 C          60.6163   89.0431    8.9791 C.ar    1  UNL1        0.0115
     31 C          61.4128   88.1552    9.8887 C.ar    1  UNL1        0.0055
@<TRIPOS>UNITY_ATOM_ATTR
15 1
charge -1
@<TRIPOS>BOND
     1    11    12    1
     2    12     8    1
     3     8     9    2
     4     8    10   am
     5    10    13    1
     6    13    14    1
     7    14    15   ar
     8    14    16   ar
     9    10     7    1
    10     7     1    1
    11     1     2   ar
    12     2     3   ar
    13     3     4   ar
    14     4     5   ar
    15     5    17    1
    16    17    18    1
    17    18    19    1
    18    19    20   ar
    19    20    21   ar
    20    21    25    1
    21    25    26   ar
    22    26    27   ar
    23    27    28   ar
    24    28    29    1
    25    28    30   ar
    26    30    31   ar
    27    21    22   ar
    28    22    23   ar
    29    23    24    1
    30     5     6   ar
    31     6     1   ar
    32    23    19   ar
    33    31    25   ar
@<TRIPOS>MOLECULE
*****
 31 33 0 0 0
SMALL
GASTEIGER

@<TRIPOS>ATOM
      1 C          63.1251   84.5674   10.4575 C.ar    1  UNL1        0.0008
      2 C          63.8840   83.3265   10.0913 C.ar    1  UNL1       -0.0024
      3 C          64.2439   82.3274   11.1507 C.ar    1  UNL1        0.0028
      4 C          63.8450   82.5693   12.5763 C.ar    1  UNL1        0.0369
      5 C          63.0861   83.8103   12.9424 C.ar    1  UNL1        0.1389
      6 C          62.7262   84.8093   11.8830 C.ar    1  UNL1        0.0343
      7 C          62.7652   85.5665    9.3980 C.3     1  UNL1        0.1239
      8 C          60.5723   86.0505    8.0915 C.2     1  UNL1        0.4055
      9 O          61.1464   85.3791    6.8792 O.2     1  UNL1       -0.2262
     10 N          61.3817   86.1441    9.3509 N.am    1  UNL1       -0.2366
     11 C          58.9792   88.0348    7.5673 C.3     1  UNL1        0.2573
     12 O          59.1888   86.6282    8.0443 O.3     1  UNL1       -0.4304
     13 C          60.8076   86.8155   10.5632 C.3     1  UNL1        0.1388
     14 C          61.0644   88.2734   10.8055 C.2     1  UNL1        0.0706
     15 O          60.5837   88.9195   12.0709 O.co2   1  UNL1       -0.5474
     16 O          61.8020   89.0851    9.7823 O.co2   1  UNL1       -0.5474
     17 O          62.6871   84.0523   14.3681 O.3     1  UNL1       -0.4689
     18 C          63.6442   84.7177   15.3121 C.3     1  UNL1        0.2537
     19 C          63.6923   86.2144   15.4001 C.ar    1  UNL1        0.1359
     20 N          64.2281   87.1424   14.3505 N.ar    1  UNL1       -0.2093
     21 C          64.0801   88.5474   14.8548 C.ar    1  UNL1        0.2290
     22 O          63.4528   88.4875   16.2160 O.2     1  UNL1       -0.4391
     23 C          63.2132   87.0457   16.5530 C.ar    1  UNL1        0.1421
     24 C          62.6017   86.5263   17.8204 C.3     1  UNL1        0.0740
     25 C          64.4878   89.7933   14.1258 C.ar    1  UNL1        0.0536
     26 C          65.6096   90.6379   14.6534 C.ar    1  UNL1        0.0055
     27 C          66.0172   91.8838   13.9244 C.ar    1  UNL1        0.0115
     28 C          65.3031   92.2852   12.6679 C.ar    1  UNL1        0.0577
     29 CL         65.7107   93.5312   11.9390 Cl      1  UNL1       -0.0822
     30 C          64.1812   91.4407   12.1404 C.ar    1  UNL1        0.0115
     31 C          63.7736   90.1947   12.8693 C.ar    1  UNL1        0.0055
@<TRIPOS>UNITY_ATOM_ATTR
15 1
charge -1
@<TRIPOS>BOND
     1    11    12    1
     2    12     8    1
     3     8     9    2
     4     8    10   am
     5    10    13    1
     6    13    14    1
     7    14    15   ar
     8    14    16   ar
     9    10     7    1
    10     7     1    1
    11     1     2   ar
    12     2     3   ar
    13     3     4   ar
    14     4     5   ar
    15     5    17    1
    16    17    18    1
    17    18    19    1
    18    19    20   ar
    19    20    21   ar
    20    21    25    1
    21    25    26   ar
    22    26    27   ar
    23    27    28   ar
    24    28    29    1
    25    28    30   ar
    26    30    31   ar
    27    21    22   ar
    28    22    23   ar
    29    23    24    1
    30     5     6   ar
    31     6     1   ar
    32    23    19   ar
    33    31    25   ar
@<TRIPOS>MOLECULE
*****
 31 33 0 0 0
SMALL
GASTEIGER

@<TRIPOS>ATOM
      1 C          63.8761   83.8508   12.3107 C.ar    1  UNL1        0.0008
      2 C          64.5762   83.0525   11.2513 C.ar    1  UNL1       -0.0024
      3 C          64.2327   83.2601    9.8060 C.ar    1  UNL1        0.0028
      4 C          63.1892   84.2660    9.4201 C.ar    1  UNL1        0.0369
      5 C          62.4891   85.0644   10.4795 C.ar    1  UNL1        0.1389
      6 C          62.8325   84.8568   11.9248 C.ar    1  UNL1        0.0343
      7 C          64.2195   83.6432   13.7561 C.3     1  UNL1        0.1239
      8 C          63.2697   85.1789   15.6241 C.2     1  UNL1        0.4055
      9 O          64.3686   86.1678   15.3699 O.2     1  UNL1       -0.2262
     10 N          63.1952   83.9166   14.8171 N.am    1  UNL1       -0.2366
     11 C          62.5706   86.3760   17.8215 C.3     1  UNL1        0.2573
     12 O          62.2453   85.4523   16.6852 O.3     1  UNL1       -0.4304
     13 C          62.0963   82.9278   15.0713 C.3     1  UNL1        0.1388
     14 C          62.1396   81.5755   14.4236 C.2     1  UNL1        0.0706
     15 O          63.4171   80.7894   14.4132 O.co2   1  UNL1       -0.5474
     16 O          60.9054   81.0092   13.7863 O.co2   1  UNL1       -0.5474
     17 O          61.4455   86.0705   10.0936 O.3     1  UNL1       -0.4689
     18 C          60.9659   87.0764   11.0977 C.3     1  UNL1        0.2537
     19 C          61.6335   88.4162   11.1948 C.ar    1  UNL1        0.1359
     20 N          62.7185   88.7926   12.1597 N.ar    1  UNL1       -0.2093
     21 C          63.0889   90.2239   11.9053 C.ar    1  UNL1        0.2290
     22 O          62.2327   90.7318   10.7832 O.2     1  UNL1       -0.4391
     23 C          61.3332   89.6146   10.3441 C.ar    1  UNL1        0.1421
     24 C          60.3127   89.6836    9.2470 C.3     1  UNL1        0.0740
     25 C          64.1322   91.0092   12.6434 C.ar    1  UNL1        0.0536
     26 C          64.4501   90.6774   14.0713 C.ar    1  UNL1        0.0055
     27 C          65.4934   91.4627   14.8094 C.ar    1  UNL1        0.0115
     28 C          66.2188   92.5798   14.1195 C.ar    1  UNL1        0.0577
     29 CL         67.2621   93.3651   14.8576 Cl      1  UNL1       -0.0822
     30 C          65.9009   92.9115   12.6916 C.ar    1  UNL1        0.0115
     31 C          64.8576   92.1262   11.9536 C.ar    1  UNL1        0.0055
@<TRIPOS>UNITY_ATOM_ATTR
15 1
charge -1
@<TRIPOS>BOND
     1    11    12    1
     2    12     8    1
     3     8     9    2
     4     8    10   am
     5    10    13    1
     6    13    14    1
     7    14    15   ar
     8    14    16   ar
     9    10     7    1
    10     7     1    1
    11     1     2   ar
    12     2     3   ar
    13     3     4   ar
    14     4     5   ar
    15     5    17    1
    16    17    18    1
    17    18    19    1
    18    19    20   ar
    19    20    21   ar
    20    21    25    1
    21    25    26   ar
    22    26    27   ar
    23    27    28   ar
    24    28    29    1
    25    28    30   ar
    26    30    31   ar
    27    21    22   ar
    28    22    23   ar
    29    23    24    1
    30     5     6   ar
    31     6     1   ar
    32    23    19   ar
    33    31    25   ar
@<TRIPOS>MOLECULE
*****
 31 33 0 0 0
SMALL
GASTEIGER

@<TRIPOS>ATOM
      1 C          64.0957   86.0560   15.1967 C.ar    1  UNL1        0.0008
      2 C          63.4240   85.6177   16.4642 C.ar    1  UNL1       -0.0024
      3 C          62.8795   86.6405   17.4168 C.ar    1  UNL1        0.0028
      4 C          63.0066   88.1015   17.1018 C.ar    1  UNL1        0.0369
      5 C          63.6783   88.5398   15.8343 C.ar    1  UNL1        0.1389
      6 C          64.2229   87.5170   14.8817 C.ar    1  UNL1        0.0343
      7 C          64.6403   85.0333   14.2441 C.3     1  UNL1        0.1239
      8 C          63.1345   82.9290   14.0104 C.2     1  UNL1        0.4055
      9 O          63.5045   82.5096   15.4023 O.2     1  UNL1       -0.2262
     10 N          63.7024   84.1908   13.4313 N.am    1  UNL1       -0.2366
     11 C          62.5656   80.6746   12.8511 C.3     1  UNL1        0.2573
     12 O          62.1966   82.0866   13.1977 O.3     1  UNL1       -0.4304
     13 C          63.3324   84.6102   12.0395 C.3     1  UNL1        0.1388
     14 C          63.8874   83.8680   10.8600 C.2     1  UNL1        0.0706
     15 O          63.4813   84.2578    9.4697 O.co2   1  UNL1       -0.5474
     16 O          64.8486   82.7359   11.0710 O.co2   1  UNL1       -0.5474
     17 O          63.8054   90.0008   15.5193 O.3     1  UNL1       -0.4689
     18 C          64.6076   90.4451   14.3323 C.3     1  UNL1        0.2537
     19 C          64.0074   90.3909   12.9586 C.ar    1  UNL1        0.1359
     20 N          63.0509   89.3509   12.4549 N.ar    1  UNL1       -0.2093
     21 C          62.7106   89.6844   11.0324 C.ar    1  UNL1        0.2290
     22 O          63.4569   90.9304   10.6572 O.2     1  UNL1       -0.4391
     23 C          64.2582   91.3670   11.8476 C.ar    1  UNL1        0.1421
     24 C          65.1534   92.5687   11.9153 C.3     1  UNL1        0.0740
     25 C          61.7865   88.9081   10.1417 C.ar    1  UNL1        0.0536
     26 C          61.9252   87.4185   10.0330 C.ar    1  UNL1        0.0055
     27 C          61.0010   86.6423    9.1423 C.ar    1  UNL1        0.0115
     28 C          59.9382   87.3557    8.3603 C.ar    1  UNL1        0.0577
     29 CL         59.0140   86.5794    7.4696 Cl      1  UNL1       -0.0822
     30 C          59.7995   88.8453    8.4691 C.ar    1  UNL1        0.0115
     31 C          60.7236   89.6215    9.3598 C.ar    1  UNL1        0.0055
@<TRIPOS>UNITY_ATOM_ATTR
15 1
charge -1
@<TRIPOS>BOND
     1    11    12    1
     2    12     8    1
     3     8     9    2
     4     8    10   am
     5    10    13    1
     6    13    14    1
     7    14    15   ar
     8    14    16   ar
     9    10     7    1
    10     7     1    1
    11     1     2   ar
    12     2     3   ar
    13     3     4   ar
    14     4     5   ar
    15     5    17    1
    16    17    18    1
    17    18    19    1
    18    19    20   ar
    19    20    21   ar
    20    21    25    1
    21    25    26   ar
    22    26    27   ar
    23    27    28   ar
    24    28    29    1
    25    28    30   ar
    26    30    31   ar
    27    21    22   ar
    28    22    23   ar
    29    23    24    1
    30     5     6   ar
    31     6     1   ar
    32    23    19   ar
    33    31    25   ar
@<TRIPOS>MOLECULE
*****
 31 33 0 0 0
SMALL
GASTEIGER

@<TRIPOS>ATOM
      1 C          64.3885   91.6852   11.5897 C.ar    1  UNL1        0.0008
      2 C          63.4418   91.3576   10.4733 C.ar    1  UNL1       -0.0024
      3 C          62.4089   90.2853   10.6561 C.ar    1  UNL1        0.0028
      4 C          62.3227   89.5407   11.9554 C.ar    1  UNL1        0.0369
      5 C          63.2694   89.8684   13.0718 C.ar    1  UNL1        0.1389
      6 C          64.3022   90.9406   12.8889 C.ar    1  UNL1        0.0343
      7 C          65.4214   92.7575   11.4068 C.3     1  UNL1        0.1239
      8 C          67.1417   92.8184   13.3528 C.2     1  UNL1        0.4055
      9 O          66.0695   93.2981   14.2857 O.2     1  UNL1       -0.2262
     10 N          66.8176   92.5480   11.9134 N.am    1  UNL1       -0.2366
     11 C          68.8462   92.8095   15.3136 C.3     1  UNL1        0.2573
     12 O          68.5379   92.6090   13.8594 O.3     1  UNL1       -0.4304
     13 C          67.8898   92.0683   10.9805 C.3     1  UNL1        0.1388
     14 C          68.1839   92.8288    9.7214 C.2     1  UNL1        0.0706
     15 O          68.1158   94.3272    9.7171 O.co2   1  UNL1       -0.5474
     16 O          68.5461   92.0908    8.4668 O.co2   1  UNL1       -0.5474
     17 O          63.1831   89.1238   14.3711 O.3     1  UNL1       -0.4689
     18 C          64.2049   88.0777   14.7053 C.3     1  UNL1        0.2537
     19 C          63.8466   86.6238   14.6158 C.ar    1  UNL1        0.1359
     20 N          63.8913   85.7795   13.3768 N.ar    1  UNL1       -0.2093
     21 C          63.4531   84.3928   13.7449 C.ar    1  UNL1        0.2290
     22 O          63.1377   84.3803   15.2113 O.2     1  UNL1       -0.4391
     23 C          63.3810   85.7591   15.7496 C.ar    1  UNL1        0.1421
     24 C          63.1917   86.1965   17.1718 C.3     1  UNL1        0.0740
     25 C          63.3487   83.2240   12.8105 C.ar    1  UNL1        0.0536
     26 C          63.7895   83.3629   11.3835 C.ar    1  UNL1        0.0055
     27 C          63.6851   82.1941   10.4492 C.ar    1  UNL1        0.0115
     28 C          63.1399   80.8864   10.9419 C.ar    1  UNL1        0.0577
     29 CL         63.0355   79.7176   10.0076 Cl      1  UNL1       -0.0822
     30 C          62.6991   80.7476   12.3689 C.ar    1  UNL1        0.0115
     31 C          62.8035   81.9164   13.3033 C.ar    1  UNL1        0.0055
@<TRIPOS>UNITY_ATOM_ATTR
15 1
charge -1
@<TRIPOS>BOND
     1    11    12    1
     2    12     8    1
     3     8     9    2
     4     8    10   am
     5    10    13    1
     6    13    14    1
     7    14    15   ar
     8    14    16   ar
     9    10     7    1
    10     7     1    1
    11     1     2   ar
    12     2     3   ar
    13     3     4   ar
    14     4     5   ar
    15     5    17    1
    16    17    18    1
    17    18    19    1
    18    19    20   ar
    19    20    21   ar
    20    21    25    1
    21    25    26   ar
    22    26    27   ar
    23    27    28   ar
    24    28    29    1
    25    28    30   ar
    26    30    31   ar
    27    21    22   ar
    28    22    23   ar
    29    23    24    1
    30     5     6   ar
    31     6     1   ar
    32    23    19   ar
    33    31    25   ar
@<TRIPOS>MOLECULE
*****
 31 33 0 0 0
SMALL
GASTEIGER

@<TRIPOS>ATOM
      1 C          62.7676   85.3843   10.2351 C.ar    1  UNL1        0.0008
      2 C          63.4573   84.1475    9.7406 C.ar    1  UNL1       -0.0024
      3 C          63.8125   83.0518   10.7014 C.ar    1  UNL1        0.0028
      4 C          63.4781   83.1929   12.1568 C.ar    1  UNL1        0.0369
      5 C          62.7884   84.4297   12.6514 C.ar    1  UNL1        0.1389
      6 C          62.4331   85.5254   11.6905 C.ar    1  UNL1        0.0343
      7 C          62.4123   86.4800    9.2743 C.3     1  UNL1        0.1239
      8 C          61.4850   88.7687   10.0818 C.2     1  UNL1        0.4055
      9 O          62.8852   89.2540   10.3141 O.2     1  UNL1       -0.2262
     10 N          61.2486   87.3816    9.5619 N.am    1  UNL1       -0.2366
     11 C          59.7925   89.7895   11.7681 C.3     1  UNL1        0.2573
     12 O          60.3213   89.6703   10.3694 O.3     1  UNL1       -0.4304
     13 C          59.8484   86.8963    9.3296 C.3     1  UNL1        0.1388
     14 C          59.3391   86.7174    7.9301 C.2     1  UNL1        0.0706
     15 O          59.7463   85.5146    7.1317 O.co2   1  UNL1       -0.5474
     16 O          58.4226   87.7414    7.3289 O.co2   1  UNL1       -0.5474
     17 O          62.4539   84.5708   14.1068 O.3     1  UNL1       -0.4689
     18 C          63.4850   85.0858   15.0668 C.3     1  UNL1        0.2537
     19 C          63.6602   86.5633   15.2579 C.ar    1  UNL1        0.1359
     20 N          64.2345   87.5199   14.2553 N.ar    1  UNL1       -0.2093
     21 C          64.2212   88.8914   14.8629 C.ar    1  UNL1        0.2290
     22 O          63.6386   88.7822   16.2409 O.2     1  UNL1       -0.4391
     23 C          63.2920   87.3434   16.4850 C.ar    1  UNL1        0.1421
     24 C          62.6839   86.7830   17.7364 C.3     1  UNL1        0.0740
     25 C          64.7053   90.1508   14.2075 C.ar    1  UNL1        0.0536
     26 C          65.8888   90.8814   14.7693 C.ar    1  UNL1        0.0055
     27 C          66.3729   92.1408   14.1139 C.ar    1  UNL1        0.0115
     28 C          65.6736   92.6695   12.8968 C.ar    1  UNL1        0.0577
     29 CL         66.1577   93.9289   12.2414 Cl      1  UNL1       -0.0822
     30 C          64.4901   91.9389   12.3350 C.ar    1  UNL1        0.0115
     31 C          64.0060   90.6795   12.9904 C.ar    1  UNL1        0.0055
@<TRIPOS>UNITY_ATOM_ATTR
15 1
charge -1
@<TRIPOS>BOND
     1    11    12    1
     2    12     8    1
     3     8     9    2
     4     8    10   am
     5    10    13    1
     6    13    14    1
     7    14    15   ar
     8    14    16   ar
     9    10     7    1
    10     7     1    1
    11     1     2   ar
    12     2     3   ar
    13     3     4   ar
    14     4     5   ar
    15     5    17    1
    16    17    18    1
    17    18    19    1
    18    19    20   ar
    19    20    21   ar
    20    21    25    1
    21    25    26   ar
    22    26    27   ar
    23    27    28   ar
    24    28    29    1
    25    28    30   ar
    26    30    31   ar
    27    21    22   ar
    28    22    23   ar
    29    23    24    1
    30     5     6   ar
    31     6     1   ar
    32    23    19   ar
    33    31    25   ar
@<TRIPOS>MOLECULE
*****
 31 33 0 0 0
SMALL
GASTEIGER

@<TRIPOS>ATOM
      1 C          63.2776   84.2566   10.6233 C.ar    1  UNL1        0.0008
      2 C          63.6932   84.1102    9.1896 C.ar    1  UNL1       -0.0024
      3 C          62.9753   84.8767    8.1186 C.ar    1  UNL1        0.0028
      4 C          61.8417   85.7895    8.4813 C.ar    1  UNL1        0.0369
      5 C          61.4261   85.9360    9.9151 C.ar    1  UNL1        0.1389
      6 C          62.1441   85.1695   10.9861 C.ar    1  UNL1        0.0343
      7 C          63.9956   83.4901   11.6944 C.3     1  UNL1        0.1239
      8 C          62.5946   81.7178   12.9773 C.2     1  UNL1        0.4055
      9 O          62.6623   80.8044   11.7894 O.2     1  UNL1       -0.2262
     10 N          63.2612   83.0607   12.9297 N.am    1  UNL1       -0.2366
     11 C          60.5016   80.6629   14.0983 C.3     1  UNL1        0.2573
     12 O          61.8602   81.2884   14.2127 O.3     1  UNL1       -0.4304
     13 C          63.1935   83.9741   14.1176 C.3     1  UNL1        0.1388
     14 C          64.1247   85.1460   14.2167 C.2     1  UNL1        0.0706
     15 O          65.5543   84.9359   14.6193 O.co2   1  UNL1       -0.5474
     16 O          63.6263   86.5278   13.9133 O.co2   1  UNL1       -0.5474
     17 O          60.2925   86.8489   10.2780 O.3     1  UNL1       -0.4689
     18 C          60.4212   87.7747   11.4511 C.3     1  UNL1        0.2537
     19 C          61.3710   88.9342   11.3909 C.ar    1  UNL1        0.1359
     20 N          62.4148   89.2727   12.4136 N.ar    1  UNL1       -0.2093
     21 C          63.1327   90.5064   11.9522 C.ar    1  UNL1        0.2290
     22 O          62.5325   90.9302   10.6444 O.2     1  UNL1       -0.4391
     23 C          61.4437   89.9585   10.2976 C.ar    1  UNL1        0.1421
     24 C          60.5794   90.0033    9.0725 C.3     1  UNL1        0.0740
     25 C          64.2539   91.1953   12.6722 C.ar    1  UNL1        0.0536
     26 C          64.6683   90.7284   14.0361 C.ar    1  UNL1        0.0055
     27 C          65.7895   91.4173   14.7561 C.ar    1  UNL1        0.0115
     28 C          66.4962   92.5730   14.1121 C.ar    1  UNL1        0.0577
     29 CL         67.6174   93.2619   14.8321 Cl      1  UNL1       -0.0822
     30 C          66.0818   93.0399   12.7482 C.ar    1  UNL1        0.0115
     31 C          64.9606   92.3511   12.0282 C.ar    1  UNL1        0.0055
@<TRIPOS>UNITY_ATOM_ATTR
15 1
charge -1
@<TRIPOS>BOND
     1    11    12    1
     2    12     8    1
     3     8     9    2
     4     8    10   am
     5    10    13    1
     6    13    14    1
     7    14    15   ar
     8    14    16   ar
     9    10     7    1
    10     7     1    1
    11     1     2   ar
    12     2     3   ar
    13     3     4   ar
    14     4     5   ar
    15     5    17    1
    16    17    18    1
    17    18    19    1
    18    19    20   ar
    19    20    21   ar
    20    21    25    1
    21    25    26   ar
    22    26    27   ar
    23    27    28   ar
    24    28    29    1
    25    28    30   ar
    26    30    31   ar
    27    21    22   ar
    28    22    23   ar
    29    23    24    1
    30     5     6   ar
    31     6     1   ar
    32    23    19   ar
    33    31    25   ar
@<TRIPOS>MOLECULE
*****
 31 33 0 0 0
SMALL
GASTEIGER

@<TRIPOS>ATOM
      1 C          64.4387   91.7804   12.0157 C.ar    1  UNL1        0.0008
      2 C          63.7182   91.2659   10.8048 C.ar    1  UNL1       -0.0024
      3 C          62.7867   90.0966   10.9268 C.ar    1  UNL1        0.0028
      4 C          62.5756   89.4417   12.2597 C.ar    1  UNL1        0.0369
      5 C          63.2961   89.9561   13.4705 C.ar    1  UNL1        0.1389
      6 C          64.2277   91.1255   13.3485 C.ar    1  UNL1        0.0343
      7 C          65.3703   92.9497   11.8937 C.3     1  UNL1        0.1239
      8 C          67.3378   93.3817   10.2529 C.2     1  UNL1        0.4055
      9 O          66.4476   94.2497    9.4138 O.2     1  UNL1       -0.2262
     10 N          66.7991   92.7317   11.4928 N.am    1  UNL1       -0.2366
     11 C          69.1026   92.1608    8.7883 C.3     1  UNL1        0.2573
     12 O          68.7667   93.1636    9.8520 O.3     1  UNL1       -0.4304
     13 C          67.6894   91.8637   12.3319 C.3     1  UNL1        0.1388
     14 C          67.7219   92.0405   13.8211 C.2     1  UNL1        0.0706
     15 O          68.2671   93.3057   14.4144 O.co2   1  UNL1       -0.5474
     16 O          67.2092   90.9521   14.7170 O.co2   1  UNL1       -0.5474
     17 O          63.0851   89.3012   14.8035 O.3     1  UNL1       -0.4689
     18 C          64.0389   88.2462   15.2801 C.3     1  UNL1        0.2537
     19 C          63.6964   86.7953   15.1142 C.ar    1  UNL1        0.1359
     20 N          63.7697   86.0127   13.8366 N.ar    1  UNL1       -0.2093
     21 C          63.3391   84.6059   14.1295 C.ar    1  UNL1        0.2290
     22 O          62.9997   84.5192   15.5881 O.2     1  UNL1       -0.4391
     23 C          63.2206   85.8723   16.1966 C.ar    1  UNL1        0.1421
     24 C          63.0037   86.2382   17.6350 C.3     1  UNL1        0.0740
     25 C          63.2615   83.4830   13.1380 C.ar    1  UNL1        0.0536
     26 C          63.6200   83.7247   11.7017 C.ar    1  UNL1        0.0055
     27 C          63.5424   82.6019   10.7101 C.ar    1  UNL1        0.0115
     28 C          63.1062   81.2374   11.1549 C.ar    1  UNL1        0.0577
     29 CL         63.0286   80.1145   10.1634 Cl      1  UNL1       -0.0822
     30 C          62.7477   80.9957   12.5913 C.ar    1  UNL1        0.0115
     31 C          62.8253   82.1185   13.5828 C.ar    1  UNL1        0.0055
@<TRIPOS>UNITY_ATOM_ATTR
15 1
charge -1
@<TRIPOS>BOND
     1    11    12    1
     2    12     8    1
     3     8     9    2
     4     8    10   am
     5    10    13    1
     6    13    14    1
     7    14    15   ar
     8    14    16   ar
     9    10     7    1
    10     7     1    1
    11     1     2   ar
    12     2     3   ar
    13     3     4   ar
    14     4     5   ar
    15     5    17    1
    16    17    18    1
    17    18    19    1
    18    19    20   ar
    19    20    21   ar
    20    21    25    1
    21    25    26   ar
    22    26    27   ar
    23    27    28   ar
    24    28    29    1
    25    28    30   ar
    26    30    31   ar
    27    21    22   ar
    28    22    23   ar
    29    23    24    1
    30     5     6   ar
    31     6     1   ar
    32    23    19   ar
    33    31    25   ar
