@<TRIPOS>MOLECULE
*****
 27 30 0 0 0
SMALL
GASTEIGER

@<TRIPOS>ATOM
      1 C          65.3366   92.2293   14.3736 C.ar    1  UNL1        0.0601
      2 S          66.2682   93.0536   13.5354 S.2     1  UNL1       -0.0507
      3 C          66.0361   92.6969   12.0970 C.ar    1  UNL1        0.1629
      4 N          64.9611   91.6520   12.0462 N.ar    1  UNL1       -0.2279
      5 C          64.5287   91.3631   13.4532 C.ar    1  UNL1        0.0772
      6 N          66.7532   93.2822   10.9167 N.pl3   1  UNL1       -0.2830
      7 C          66.5841   94.7343   10.5809 C.3     1  UNL1        0.1247
      8 C          67.3012   95.3196    9.4006 C.3     1  UNL1        0.1636
      9 O          68.1875   94.4528    8.5560 O.3     1  UNL1       -0.3501
     10 C          68.3566   93.0007    8.8919 C.3     1  UNL1        0.1636
     11 C          67.6395   92.4154   10.0722 C.3     1  UNL1        0.1247
     12 O          66.4399   92.5829   16.6990 O.co2   1  UNL1       -0.5440
     13 C          65.2313   92.2649   15.8694 C.2     1  UNL1        0.0801
     14 O          63.9174   91.9825   16.5357 O.co2   1  UNL1       -0.5440
     15 C          63.4738   90.3804   13.8671 C.3     1  UNL1        0.1318
     16 C          63.1746   89.1922   13.0018 C.2     1  UNL1        0.2354
     17 O          63.8290   87.8730   13.2868 O.2     1  UNL1       -0.2741
     18 N          62.2210   89.3234   11.8513 N.am    1  UNL1       -0.2583
     19 C          61.4946   90.5716   11.4461 C.3     1  UNL1        0.1029
     20 C          60.6511   90.2490   10.2485 C.3     1  UNL1        0.0496
     21 C          60.8562   88.8014    9.9134 C.ar    1  UNL1       -0.0045
     22 C          60.2848   87.9301    8.8343 C.ar    1  UNL1        0.0267
     23 C          60.6836   86.4868    8.7458 C.ar    1  UNL1        0.1399
     24 F          60.1122   85.6156    7.6668 F       1  UNL1       -0.2042
     25 C          61.6539   85.9148    9.7364 C.ar    1  UNL1        0.0309
     26 C          62.2253   86.7860   10.8156 C.ar    1  UNL1        0.0169
     27 C          61.8265   88.2293   10.9041 C.ar    1  UNL1        0.0500
@<TRIPOS>UNITY_ATOM_ATTR
12 1
charge -1
@<TRIPOS>BOND
     1    12    13   ar
     2    13    14   ar
     3    13     1    1
     4     1     2   ar
     5     2     3   ar
     6     3     6    1
     7     6     7    1
     8     7     8    1
     9     8     9    1
    10     9    10    1
    11    10    11    1
    12     3     4   ar
    13     4     5   ar
    14     5    15    1
    15    15    16    1
    16    16    17    2
    17    16    18   am
    18    18    19    1
    19    19    20    1
    20    20    21    1
    21    21    22   ar
    22    22    23   ar
    23    23    24    1
    24    23    25   ar
    25    25    26   ar
    26    26    27   ar
    27     5     1   ar
    28    27    18    1
    29    11     6    1
    30    27    21   ar
@<TRIPOS>MOLECULE
*****
 27 30 0 0 0
SMALL
GASTEIGER

@<TRIPOS>ATOM
      1 C          60.8246   87.4170    9.7324 C.ar    1  UNL1        0.0601
      2 S          61.2710   85.9895    9.8457 S.2     1  UNL1       -0.0507
      3 C          62.2299   85.8934   10.9951 C.ar    1  UNL1        0.1629
      4 N          62.3762   87.2616   11.5923 N.ar    1  UNL1       -0.2279
      5 C          61.5077   88.2032   10.8118 C.ar    1  UNL1        0.0772
      6 N          62.9211   84.6478   11.4649 N.pl3   1  UNL1       -0.2830
      7 C          63.5657   83.7276   10.4713 C.3     1  UNL1        0.1247
      8 C          64.2569   82.4820   10.9411 C.3     1  UNL1        0.1636
      9 O          64.3035   82.1567   12.4047 O.3     1  UNL1       -0.3501
     10 C          63.6588   83.0770   13.3984 C.3     1  UNL1        0.1636
     11 C          62.9676   84.3225   12.9285 C.3     1  UNL1        0.1247
     12 O          58.7248   87.1159    8.2323 O.co2   1  UNL1       -0.5440
     13 C          59.8639   87.9626    8.7178 C.2     1  UNL1        0.0801
     14 O          60.0422   89.3547    8.1887 O.co2   1  UNL1       -0.5440
     15 C          61.3500   89.6731   11.0663 C.3     1  UNL1        0.1318
     16 C          62.5629   90.5416   11.2224 C.2     1  UNL1        0.2354
     17 O          63.0552   91.3577   10.0641 O.2     1  UNL1       -0.2741
     18 N          63.2837   90.5940   12.5368 N.am    1  UNL1       -0.2583
     19 C          62.9109   89.8380   13.7775 C.3     1  UNL1        0.1029
     20 C          63.9006   90.1884   14.8488 C.3     1  UNL1        0.0496
     21 C          64.8851   91.1610   14.2703 C.ar    1  UNL1       -0.0045
     22 C          66.0795   91.8507   14.8599 C.ar    1  UNL1        0.0267
     23 C          66.8926   92.7912   14.0206 C.ar    1  UNL1        0.1399
     24 F          68.0870   93.4810   14.6103 F       1  UNL1       -0.2042
     25 C          66.5113   93.0419   12.5917 C.ar    1  UNL1        0.0309
     26 C          65.3169   92.3522   12.0020 C.ar    1  UNL1        0.0169
     27 C          64.5038   91.4117   12.8413 C.ar    1  UNL1        0.0500
@<TRIPOS>UNITY_ATOM_ATTR
12 1
charge -1
@<TRIPOS>BOND
     1    12    13   ar
     2    13    14   ar
     3    13     1    1
     4     1     2   ar
     5     2     3   ar
     6     3     6    1
     7     6     7    1
     8     7     8    1
     9     8     9    1
    10     9    10    1
    11    10    11    1
    12     3     4   ar
    13     4     5   ar
    14     5    15    1
    15    15    16    1
    16    16    17    2
    17    16    18   am
    18    18    19    1
    19    19    20    1
    20    20    21    1
    21    21    22   ar
    22    22    23   ar
    23    23    24    1
    24    23    25   ar
    25    25    26   ar
    26    26    27   ar
    27     5     1   ar
    28    27    18    1
    29    11     6    1
    30    27    21   ar
@<TRIPOS>MOLECULE
*****
 27 30 0 0 0
SMALL
GASTEIGER

@<TRIPOS>ATOM
      1 C          61.0776   87.4627   10.2252 C.ar    1  UNL1        0.0601
      2 S          61.3843   85.9954   10.2791 S.2     1  UNL1       -0.0507
      3 C          62.3600   85.7664   11.3952 C.ar    1  UNL1        0.1629
      4 N          62.6564   87.0922   12.0310 N.ar    1  UNL1       -0.2279
      5 C          61.8638   88.1406   11.3080 C.ar    1  UNL1        0.0772
      6 N          62.9379   84.4438   11.8036 N.pl3   1  UNL1       -0.2830
      7 C          62.8733   84.0078   13.2373 C.3     1  UNL1        0.1247
      8 C          63.4512   82.6852   13.6457 C.3     1  UNL1        0.1636
      9 O          64.0936   81.7986   12.6203 O.3     1  UNL1       -0.3501
     10 C          64.1582   82.2348   11.1866 C.3     1  UNL1        0.1636
     11 C          63.5803   83.5573   10.7782 C.3     1  UNL1        0.1247
     12 O          60.1527   89.6286    9.1282 O.co2   1  UNL1       -0.5440
     13 C          60.1480   88.1342    9.2583 C.2     1  UNL1        0.0801
     14 O          59.2137   87.3114    8.4216 O.co2   1  UNL1       -0.5440
     15 C          61.8584   89.6090   11.6140 C.3     1  UNL1        0.1318
     16 C          62.7259   90.1496   12.7118 C.2     1  UNL1        0.2354
     17 O          62.4899   89.7266   14.1314 O.2     1  UNL1       -0.2741
     18 N          63.8295   91.1132   12.3899 N.am    1  UNL1       -0.2583
     19 C          64.1833   91.6246   11.0250 C.3     1  UNL1        0.1029
     20 C          65.3455   92.5620   11.1681 C.3     1  UNL1        0.0496
     21 C          65.7101   92.6299   12.6214 C.ar    1  UNL1       -0.0045
     22 C          66.7742   93.3914   13.3548 C.ar    1  UNL1        0.0267
     23 C          66.9014   93.2574   14.8434 C.ar    1  UNL1        0.1399
     24 F          67.9654   94.0189   15.5768 F       1  UNL1       -0.2042
     25 C          65.9644   92.3620   15.5986 C.ar    1  UNL1        0.0309
     26 C          64.9003   91.6004   14.8652 C.ar    1  UNL1        0.0169
     27 C          64.7731   91.7344   13.3766 C.ar    1  UNL1        0.0500
@<TRIPOS>UNITY_ATOM_ATTR
12 1
charge -1
@<TRIPOS>BOND
     1    12    13   ar
     2    13    14   ar
     3    13     1    1
     4     1     2   ar
     5     2     3   ar
     6     3     6    1
     7     6     7    1
     8     7     8    1
     9     8     9    1
    10     9    10    1
    11    10    11    1
    12     3     4   ar
    13     4     5   ar
    14     5    15    1
    15    15    16    1
    16    16    17    2
    17    16    18   am
    18    18    19    1
    19    19    20    1
    20    20    21    1
    21    21    22   ar
    22    22    23   ar
    23    23    24    1
    24    23    25   ar
    25    25    26   ar
    26    26    27   ar
    27     5     1   ar
    28    27    18    1
    29    11     6    1
    30    27    21   ar
@<TRIPOS>MOLECULE
*****
 27 30 0 0 0
SMALL
GASTEIGER

@<TRIPOS>ATOM
      1 C          64.2737   91.1386   13.6599 C.ar    1  UNL1        0.0601
      2 S          65.4083   92.0505   13.2978 S.2     1  UNL1       -0.0507
      3 C          65.3232   92.3349   11.8274 C.ar    1  UNL1        0.1629
      4 N          64.1360   91.5988   11.2808 N.ar    1  UNL1       -0.2279
      5 C          63.4874   90.8595   12.4134 C.ar    1  UNL1        0.0772
      6 N          66.2607   93.2030   11.0417 N.pl3   1  UNL1       -0.2830
      7 C          66.1318   94.6960   11.1056 C.3     1  UNL1        0.1247
      8 C          67.0693   95.5642   10.3198 C.3     1  UNL1        0.1636
      9 O          68.1359   94.9392    9.4701 O.3     1  UNL1       -0.3501
     10 C          68.2647   93.4461    9.4062 C.3     1  UNL1        0.1636
     11 C          67.3272   92.5781   10.1920 C.3     1  UNL1        0.1247
     12 O          63.5565   91.5322   16.1259 O.co2   1  UNL1       -0.5440
     13 C          63.9774   90.6003   15.0283 C.2     1  UNL1        0.0801
     14 O          64.1020   89.1303   15.2992 O.co2   1  UNL1       -0.5440
     15 C          62.2668   89.9931   12.3164 C.3     1  UNL1        0.1318
     16 C          62.3135   88.7168   11.5298 C.2     1  UNL1        0.2354
     17 O          63.2011   87.5929   11.9759 O.2     1  UNL1       -0.2741
     18 N          61.4726   88.5643   10.2970 N.am    1  UNL1       -0.2583
     19 C          60.5419   89.5957    9.7315 C.3     1  UNL1        0.1029
     20 C          59.9089   89.0225    8.4984 C.3     1  UNL1        0.0496
     21 C          60.4483   87.6368    8.3017 C.ar    1  UNL1       -0.0045
     22 C          60.1844   86.5962    7.2541 C.ar    1  UNL1        0.0267
     23 C          60.8869   85.2724    7.3181 C.ar    1  UNL1        0.1399
     24 F          60.6230   84.2319    6.2705 F       1  UNL1       -0.2042
     25 C          61.8533   84.9892    8.4297 C.ar    1  UNL1        0.0309
     26 C          62.1173   86.0298    9.4774 C.ar    1  UNL1        0.0169
     27 C          61.4148   87.3536    9.4134 C.ar    1  UNL1        0.0500
@<TRIPOS>UNITY_ATOM_ATTR
12 1
charge -1
@<TRIPOS>BOND
     1    12    13   ar
     2    13    14   ar
     3    13     1    1
     4     1     2   ar
     5     2     3   ar
     6     3     6    1
     7     6     7    1
     8     7     8    1
     9     8     9    1
    10     9    10    1
    11    10    11    1
    12     3     4   ar
    13     4     5   ar
    14     5    15    1
    15    15    16    1
    16    16    17    2
    17    16    18   am
    18    18    19    1
    19    19    20    1
    20    20    21    1
    21    21    22   ar
    22    22    23   ar
    23    23    24    1
    24    23    25   ar
    25    25    26   ar
    26    26    27   ar
    27     5     1   ar
    28    27    18    1
    29    11     6    1
    30    27    21   ar
@<TRIPOS>MOLECULE
*****
 27 30 0 0 0
SMALL
GASTEIGER

@<TRIPOS>ATOM
      1 C          64.0373   90.7920   13.6975 C.ar    1  UNL1        0.0601
      2 S          65.2741   91.5453   13.3066 S.2     1  UNL1       -0.0507
      3 C          65.0696   92.0859   11.9224 C.ar    1  UNL1        0.1629
      4 N          63.7064   91.6665   11.4578 N.ar    1  UNL1       -0.2279
      5 C          63.0685   90.8669   12.5549 C.ar    1  UNL1        0.0772
      6 N          66.0553   92.9023   11.1402 N.pl3   1  UNL1       -0.2830
      7 C          67.1810   92.2264   10.4151 C.3     1  UNL1        0.1247
      8 C          68.1666   93.0429    9.6329 C.3     1  UNL1        0.1636
      9 O          68.0265   94.5353    9.5757 O.3     1  UNL1       -0.3501
     10 C          66.9007   95.2111   10.3009 C.3     1  UNL1        0.1636
     11 C          65.9151   94.3946   11.0831 C.3     1  UNL1        0.1247
     12 O          63.4957   90.8789   16.2371 O.co2   1  UNL1       -0.5440
     13 C          63.8094   90.0875   15.0020 C.2     1  UNL1        0.0801
     14 O          63.8953   88.5916   15.0715 O.co2   1  UNL1       -0.5440
     15 C          61.7015   90.2504   12.5161 C.3     1  UNL1        0.1318
     16 C          61.1937   89.6313   11.2477 C.2     1  UNL1        0.2354
     17 O          60.2706   90.4041   10.3531 O.2     1  UNL1       -0.2741
     18 N          61.6092   88.2392   10.8740 N.am    1  UNL1       -0.2583
     19 C          62.5217   87.3492   11.6646 C.3     1  UNL1        0.1029
     20 C          62.6615   86.0528   10.9233 C.3     1  UNL1        0.0496
     21 C          61.8353   86.1414    9.6745 C.ar    1  UNL1       -0.0045
     22 C          61.5912   85.1663    8.5611 C.ar    1  UNL1        0.0267
     23 C          60.6967   85.5425    7.4173 C.ar    1  UNL1        0.1399
     24 F          60.4526   84.5675    6.3039 F       1  UNL1       -0.2042
     25 C          60.0463   86.8939    7.3868 C.ar    1  UNL1        0.0309
     26 C          60.2904   87.8690    8.5002 C.ar    1  UNL1        0.0169
     27 C          61.1849   87.4928    9.6440 C.ar    1  UNL1        0.0500
@<TRIPOS>UNITY_ATOM_ATTR
12 1
charge -1
@<TRIPOS>BOND
     1    12    13   ar
     2    13    14   ar
     3    13     1    1
     4     1     2   ar
     5     2     3   ar
     6     3     6    1
     7     6     7    1
     8     7     8    1
     9     8     9    1
    10     9    10    1
    11    10    11    1
    12     3     4   ar
    13     4     5   ar
    14     5    15    1
    15    15    16    1
    16    16    17    2
    17    16    18   am
    18    18    19    1
    19    19    20    1
    20    20    21    1
    21    21    22   ar
    22    22    23   ar
    23    23    24    1
    24    23    25   ar
    25    25    26   ar
    26    26    27   ar
    27     5     1   ar
    28    27    18    1
    29    11     6    1
    30    27    21   ar
@<TRIPOS>MOLECULE
*****
 27 30 0 0 0
SMALL
GASTEIGER

@<TRIPOS>ATOM
      1 C          62.8376   90.8503   10.9462 C.ar    1  UNL1        0.0601
      2 S          63.5869   91.9172   10.2044 S.2     1  UNL1       -0.0507
      3 C          64.8944   92.1382   10.9056 C.ar    1  UNL1        0.1629
      4 N          64.9532   91.2079   12.0808 N.ar    1  UNL1       -0.2279
      5 C          63.6820   90.4119   12.1058 C.ar    1  UNL1        0.0772
      6 N          65.9566   93.1176   10.5024 N.pl3   1  UNL1       -0.2830
      7 C          65.7522   94.5848   10.7375 C.3     1  UNL1        0.1247
      8 C          66.8144   95.5641   10.3343 C.3     1  UNL1        0.1636
      9 O          68.0811   95.0762    9.6959 O.3     1  UNL1       -0.3501
     10 C          68.2855   93.6089    9.4608 C.3     1  UNL1        0.1636
     11 C          67.2233   92.6296    9.8640 C.3     1  UNL1        0.1247
     12 O          60.3398   90.4693   11.5510 O.co2   1  UNL1       -0.5440
     13 C          61.4819   90.3157   10.5908 C.2     1  UNL1        0.0801
     14 O          61.2684   89.6276    9.2752 O.co2   1  UNL1       -0.5440
     15 C          63.3190   89.3619   13.1137 C.3     1  UNL1        0.1318
     16 C          63.1875   87.9291   12.6898 C.2     1  UNL1        0.2354
     17 O          62.5688   87.5924   11.3655 O.2     1  UNL1       -0.2741
     18 N          63.6749   86.8329   13.5903 N.am    1  UNL1       -0.2583
     19 C          64.3117   87.0150   14.9360 C.3     1  UNL1        0.1029
     20 C          64.6413   85.6567   15.4805 C.3     1  UNL1        0.0496
     21 C          64.2082   84.6351   14.4713 C.ar    1  UNL1       -0.0045
     22 C          64.2805   83.1369   14.4651 C.ar    1  UNL1        0.0267
     23 C          63.7555   82.3655   13.2906 C.ar    1  UNL1        0.1399
     24 F          63.8278   80.8673   13.2844 F       1  UNL1       -0.2042
     25 C          63.1582   83.0924   12.1223 C.ar    1  UNL1        0.0309
     26 C          63.0859   84.5907   12.1285 C.ar    1  UNL1        0.0169
     27 C          63.6109   85.3620   13.3030 C.ar    1  UNL1        0.0500
@<TRIPOS>UNITY_ATOM_ATTR
12 1
charge -1
@<TRIPOS>BOND
     1    12    13   ar
     2    13    14   ar
     3    13     1    1
     4     1     2   ar
     5     2     3   ar
     6     3     6    1
     7     6     7    1
     8     7     8    1
     9     8     9    1
    10     9    10    1
    11    10    11    1
    12     3     4   ar
    13     4     5   ar
    14     5    15    1
    15    15    16    1
    16    16    17    2
    17    16    18   am
    18    18    19    1
    19    19    20    1
    20    20    21    1
    21    21    22   ar
    22    22    23   ar
    23    23    24    1
    24    23    25   ar
    25    25    26   ar
    26    26    27   ar
    27     5     1   ar
    28    27    18    1
    29    11     6    1
    30    27    21   ar
@<TRIPOS>MOLECULE
*****
 27 30 0 0 0
SMALL
GASTEIGER

@<TRIPOS>ATOM
      1 C          62.8305   90.9057   10.9621 C.ar    1  UNL1        0.0601
      2 S          63.7162   91.7682   10.1127 S.2     1  UNL1       -0.0507
      3 C          64.9480   92.0906   10.9057 C.ar    1  UNL1        0.1629
      4 N          64.8235   91.4274   12.2453 N.ar    1  UNL1       -0.2279
      5 C          63.5148   90.6951   12.2802 C.ar    1  UNL1        0.0772
      6 N          66.1016   92.9290   10.4407 N.pl3   1  UNL1       -0.2830
      7 C          67.3644   92.2715    9.9689 C.3     1  UNL1        0.1247
      8 C          68.5180   93.1099    9.5039 C.3     1  UNL1        0.1636
      9 O          68.4088   94.6060    9.5108 O.3     1  UNL1       -0.3501
     10 C          67.1458   95.2634    9.9827 C.3     1  UNL1        0.1636
     11 C          65.9923   94.4250   10.4477 C.3     1  UNL1        0.1247
     12 O          60.2982   90.5748   11.4399 O.co2   1  UNL1       -0.5440
     13 C          61.4949   90.3513   10.5635 C.2     1  UNL1        0.0801
     14 O          61.3561   89.5733    9.2886 O.co2   1  UNL1       -0.5440
     15 C          62.9838   89.8930   13.4311 C.3     1  UNL1        0.1318
     16 C          63.5504   88.5354   13.7239 C.2     1  UNL1        0.2354
     17 O          64.5382   88.3595   14.8389 O.2     1  UNL1       -0.2741
     18 N          63.1292   87.3536   12.9017 N.am    1  UNL1       -0.2583
     19 C          62.1556   87.3753   11.7609 C.3     1  UNL1        0.1029
     20 C          62.0324   85.9777   11.2301 C.3     1  UNL1        0.0496
     21 C          62.9298   85.0923   12.0428 C.ar    1  UNL1       -0.0045
     22 C          63.2174   83.6217   11.9757 C.ar    1  UNL1        0.0267
     23 C          64.1828   83.0014   12.9417 C.ar    1  UNL1        0.1399
     24 F          64.4704   81.5307   12.8745 F       1  UNL1       -0.2042
     25 C          64.8607   83.8517   13.9748 C.ar    1  UNL1        0.0309
     26 C          64.5732   85.3224   14.0420 C.ar    1  UNL1        0.0169
     27 C          63.6077   85.9427   13.0760 C.ar    1  UNL1        0.0500
@<TRIPOS>UNITY_ATOM_ATTR
12 1
charge -1
@<TRIPOS>BOND
     1    12    13   ar
     2    13    14   ar
     3    13     1    1
     4     1     2   ar
     5     2     3   ar
     6     3     6    1
     7     6     7    1
     8     7     8    1
     9     8     9    1
    10     9    10    1
    11    10    11    1
    12     3     4   ar
    13     4     5   ar
    14     5    15    1
    15    15    16    1
    16    16    17    2
    17    16    18   am
    18    18    19    1
    19    19    20    1
    20    20    21    1
    21    21    22   ar
    22    22    23   ar
    23    23    24    1
    24    23    25   ar
    25    25    26   ar
    26    26    27   ar
    27     5     1   ar
    28    27    18    1
    29    11     6    1
    30    27    21   ar
@<TRIPOS>MOLECULE
*****
 27 30 0 0 0
SMALL
GASTEIGER

@<TRIPOS>ATOM
      1 C          62.9410   89.3395   12.4099 C.ar    1  UNL1        0.0601
      2 S          62.0420   89.6655   11.2543 S.2     1  UNL1       -0.0507
      3 C          61.6120   88.3747   10.6228 C.ar    1  UNL1        0.1629
      4 N          62.2454   87.2507   11.3881 N.ar    1  UNL1       -0.2279
      5 C          63.0667   87.8470   12.4926 C.ar    1  UNL1        0.0772
      6 N          60.7076   88.2327    9.4346 N.pl3   1  UNL1       -0.2830
      7 C          60.1898   86.8803    9.0436 C.3     1  UNL1        0.1247
      8 C          59.2854   86.7383    7.8554 C.3     1  UNL1        0.1636
      9 O          58.8987   87.9488    7.0582 O.3     1  UNL1       -0.3501
     10 C          59.4165   89.3011    7.4493 C.3     1  UNL1        0.1636
     11 C          60.3209   89.4431    8.6375 C.3     1  UNL1        0.1247
     12 O          63.1508   90.4502   14.7492 O.co2   1  UNL1       -0.5440
     13 C          63.5988   90.3316   13.3225 C.2     1  UNL1        0.0801
     14 O          64.7046   91.2051   12.8086 O.co2   1  UNL1       -0.5440
     15 C          63.8723   87.0847   13.5025 C.3     1  UNL1        0.1318
     16 C          63.4279   85.7210   13.9416 C.2     1  UNL1        0.2354
     17 O          62.9876   85.4955   15.3576 O.2     1  UNL1       -0.2741
     18 N          63.4237   84.5828   12.9645 N.am    1  UNL1       -0.2583
     19 C          63.8345   84.6561   11.5238 C.3     1  UNL1        0.1029
     20 C          63.6727   83.2901   10.9256 C.3     1  UNL1        0.0496
     21 C          63.1619   82.3725   11.9966 C.ar    1  UNL1       -0.0045
     22 C          62.8171   80.9128   11.9873 C.ar    1  UNL1        0.0267
     23 C          62.3183   80.2519   13.2381 C.ar    1  UNL1        0.1399
     24 F          61.9734   78.7921   13.2288 F       1  UNL1       -0.2042
     25 C          62.1644   81.0508   14.4983 C.ar    1  UNL1        0.0309
     26 C          62.5093   82.5107   14.5077 C.ar    1  UNL1        0.0169
     27 C          63.0080   83.1715   13.2568 C.ar    1  UNL1        0.0500
@<TRIPOS>UNITY_ATOM_ATTR
12 1
charge -1
@<TRIPOS>BOND
     1    12    13   ar
     2    13    14   ar
     3    13     1    1
     4     1     2   ar
     5     2     3   ar
     6     3     6    1
     7     6     7    1
     8     7     8    1
     9     8     9    1
    10     9    10    1
    11    10    11    1
    12     3     4   ar
    13     4     5   ar
    14     5    15    1
    15    15    16    1
    16    16    17    2
    17    16    18   am
    18    18    19    1
    19    19    20    1
    20    20    21    1
    21    21    22   ar
    22    22    23   ar
    23    23    24    1
    24    23    25   ar
    25    25    26   ar
    26    26    27   ar
    27     5     1   ar
    28    27    18    1
    29    11     6    1
    30    27    21   ar
@<TRIPOS>MOLECULE
*****
 27 30 0 0 0
SMALL
GASTEIGER

@<TRIPOS>ATOM
      1 C          60.3017   89.1980   10.9884 C.ar    1  UNL1        0.0601
      2 S          60.0943   87.9134   10.2422 S.2     1  UNL1       -0.0507
      3 C          61.3138   87.6608    9.4062 C.ar    1  UNL1        0.1629
      4 N          62.2750   88.7893    9.6356 N.ar    1  UNL1       -0.2279
      5 C          61.6495   89.7393   10.6135 C.ar    1  UNL1        0.0772
      6 N          61.5336   86.4860    8.4998 N.pl3   1  UNL1       -0.2830
      7 C          60.4451   86.0443    7.5672 C.3     1  UNL1        0.1247
      8 C          60.6648   84.8694    6.6609 C.3     1  UNL1        0.1636
      9 O          61.9732   84.1363    6.6872 O.3     1  UNL1       -0.3501
     10 C          63.0618   84.5780    7.6199 C.3     1  UNL1        0.1636
     11 C          62.8419   85.7528    8.5262 C.3     1  UNL1        0.1247
     12 O          58.9148   89.0981   13.1831 O.co2   1  UNL1       -0.5440
     13 C          59.3317   89.8303   11.9420 C.2     1  UNL1        0.0801
     14 O          58.7787   91.1946   11.6546 O.co2   1  UNL1       -0.5440
     15 C          62.2639   91.0080   11.1264 C.3     1  UNL1        0.1318
     16 C          63.2295   90.9634   12.2733 C.2     1  UNL1        0.2354
     17 O          62.8674   90.2298   13.5306 O.2     1  UNL1       -0.2741
     18 N          64.5573   91.6525   12.1630 N.am    1  UNL1       -0.2583
     19 C          65.0559   92.4209   10.9753 C.3     1  UNL1        0.1029
     20 C          66.4264   92.9374   11.2993 C.3     1  UNL1        0.0496
     21 C          66.7749   92.4882   12.6873 C.ar    1  UNL1       -0.0045
     22 C          67.9947   92.6996   13.5342 C.ar    1  UNL1        0.0267
     23 C          68.0595   92.1169   14.9148 C.ar    1  UNL1        0.1399
     24 F          69.2794   92.3283   15.7617 F       1  UNL1       -0.2042
     25 C          66.9044   91.3228   15.4487 C.ar    1  UNL1        0.0309
     26 C          65.6844   91.1113   14.6018 C.ar    1  UNL1        0.0169
     27 C          65.6197   91.6940   13.2212 C.ar    1  UNL1        0.0500
@<TRIPOS>UNITY_ATOM_ATTR
12 1
charge -1
@<TRIPOS>BOND
     1    12    13   ar
     2    13    14   ar
     3    13     1    1
     4     1     2   ar
     5     2     3   ar
     6     3     6    1
     7     6     7    1
     8     7     8    1
     9     8     9    1
    10     9    10    1
    11    10    11    1
    12     3     4   ar
    13     4     5   ar
    14     5    15    1
    15    15    16    1
    16    16    17    2
    17    16    18   am
    18    18    19    1
    19    19    20    1
    20    20    21    1
    21    21    22   ar
    22    22    23   ar
    23    23    24    1
    24    23    25   ar
    25    25    26   ar
    26    26    27   ar
    27     5     1   ar
    28    27    18    1
    29    11     6    1
    30    27    21   ar
