@<TRIPOS>MOLECULE
*****
 44 50 0 0 0
SMALL
GASTEIGER

@<TRIPOS>ATOM
      1 C          62.7989   86.4480   12.3258 C.3     1  UNL1        0.1561
      2 C          63.4467   87.3774   13.3089 C.2     1  UNL1        0.2440
      3 O          63.9427   86.8518   14.6233 O.2     1  UNL1       -0.2731
      4 N          63.5984   88.8325   12.9776 N.am    1  UNL1       -0.2734
      5 C          64.1907   89.9794   13.7416 C.3     1  UNL1        0.0937
      6 C          64.0607   91.2139   12.8993 C.3     1  UNL1        0.0234
      7 C          63.3881   90.8298   11.6148 C.3     1  UNL1        0.0285
      8 C          63.1024   89.3580   11.6631 C.3     1  UNL1        0.1465
      9 C          62.4546   88.4285   10.6800 C.3     1  UNL1        0.2754
     10 O          62.5365   89.8512   10.2118 O.3     1  UNL1       -0.3478
     11 O          61.8735   88.6564    9.3160 O.3     1  UNL1       -0.2976
     12 C          61.3626   87.3422    8.8044 C.3     1  UNL1        0.2253
     13 C          61.6280   86.3021    9.8522 C.2     1  UNL1        0.2719
     14 O          61.2797   84.8462    9.7574 O.2     1  UNL1       -0.2704
     15 N          62.3029   86.9735   11.0113 N.am    1  UNL1       -0.2271
     16 H          62.9642   90.3920   10.8941 H       1  UNL1        0.2145
     17 N          60.9734   88.1425    7.5970 N.am    1  UNL1       -0.2787
     18 C          60.0912   89.3462    7.7475 C.2     1  UNL1        0.2293
     19 O          59.5981   89.7496    9.1054 O.2     1  UNL1       -0.2746
     20 H          61.2970   87.8777    6.7057 H       1  UNL1        0.1519
     21 C          59.7020   90.1465    6.5400 C.3     1  UNL1        0.1141
     22 C          60.7525   90.5992    5.5697 C.2     1  UNL1       -0.0192
     23 C          60.3633   91.3995    4.3622 C.2     1  UNL1       -0.0145
     24 C          61.4139   91.8522    3.3919 C.2     1  UNL1       -0.0161
     25 C          62.8536   91.5046    3.6292 C.2     1  UNL1       -0.0038
     26 C          63.9041   91.9573    2.6589 C.2     1  UNL1        0.0009
     27 C          63.5149   92.7576    1.4514 C.2     1  UNL1        0.0153
     28 C          62.0752   93.1052    1.2142 C.2     1  UNL1        0.0665
     29 N          61.2607   93.8476    0.1966 N.2     1  UNL1       -0.2482
     30 C          59.8229   93.7870    0.6198 C.2     1  UNL1        0.0907
     31 C          59.5848   93.0001    1.9473 C.2     1  UNL1       -0.0142
     32 C          61.0246   92.6525    2.1845 C.3     1  UNL1        0.0819
     33 C          58.5343   92.5474    2.9175 C.3     1  UNL1        0.0447
     34 C          58.9235   91.7471    4.1250 C.3     1  UNL1        0.0837
     35 N          57.8730   91.2944    5.0953 N.3     1  UNL1       -0.2681
     36 C          56.4332   91.6420    4.8581 C.3     1  UNL1        0.0899
     37 C          58.2622   90.4941    6.3027 C.3     1  UNL1        0.0859
     38 C          60.7704   86.1952    8.0404 C.3     1  UNL1        0.0516
     39 C          61.6673   85.1767    7.4016 C.3     1  UNL1        0.0047
     40 C          59.2812   86.0669    7.9151 C.3     1  UNL1        0.0047
     41 C          62.6472   84.9929   12.6571 C.3     1  UNL1        0.0294
     42 C          64.1061   83.4760   11.1336 C.3     1  UNL1        0.0001
     43 C          63.8081   84.0590   12.4832 C.3     1  UNL1        0.0021
     44 C          64.6710   83.7081   13.6589 C.3     1  UNL1        0.0001
@<TRIPOS>BOND
     1    42    43    1
     2    43    44    1
     3    43    41    1
     4     1    41    1
     5     1     2    1
     6     2     3    2
     7     2     4   am
     8     4     5    1
     9     5     6    1
    10     6     7    1
    11     8     7    1
    12     8     9    1
    13     9    10    1
    14     9    11    1
    15    11    12    1
    16    12    17    1
    17    17    18   am
    18    18    19    2
    19    21    18    1
    20    21    22    1
    21    22    23    2
    22    23    24    1
    23    24    25    2
    24    25    26    1
    25    26    27    2
    26    27    28    1
    27    28    29    2
    28    29    30    1
    29    30    31    2
    30    31    32    1
    31    31    33    1
    32    34    33    1
    33    34    35    1
    34    35    36    1
    35    35    37    1
    36    12    38    1
    37    38    39    1
    38    38    40    1
    39    12    13    1
    40    13    14    2
    41    13    15   am
    42    15     1    1
    43     8     4    1
    44    15     9    1
    45    37    21    1
    46    34    23    1
    47    32    24    1
    48    32    28    1
    49    10    16    1
    50    17    20    1
@<TRIPOS>MOLECULE
*****
 44 50 0 0 0
SMALL
GASTEIGER

@<TRIPOS>ATOM
      1 C          62.8004   86.1034   12.3213 C.3     1  UNL1        0.1561
      2 C          63.2292   84.7365   11.8765 C.2     1  UNL1        0.2440
      3 O          63.6860   83.7277   12.8881 O.2     1  UNL1       -0.2731
      4 N          63.2011   84.3787   10.4201 N.am    1  UNL1       -0.2734
      5 C          63.5624   83.1198    9.6888 C.3     1  UNL1        0.0937
      6 C          63.3288   83.3508    8.2251 C.3     1  UNL1        0.0234
      7 C          62.8232   84.7523    8.0520 C.3     1  UNL1        0.0285
      8 C          62.7443   85.3876    9.4086 C.3     1  UNL1        0.1465
      9 C          62.3155   86.7545    9.8533 C.3     1  UNL1        0.2754
     10 O          62.2341   86.5420    8.3707 O.3     1  UNL1       -0.3478
     11 O          61.8205   87.9484    9.0921 O.3     1  UNL1       -0.2976
     12 C          61.5427   89.0442   10.0780 C.3     1  UNL1        0.2253
     13 C          61.8659   88.5275   11.4486 C.2     1  UNL1        0.2719
     14 O          61.7346   89.2917   12.7326 O.2     1  UNL1       -0.2704
     15 N          62.3435   87.1124   11.3097 N.am    1  UNL1       -0.2271
     16 H          62.5249   85.6416    8.1567 H       1  UNL1        0.2145
     17 N          61.1439   89.8240    8.8603 N.am    1  UNL1       -0.2787
     18 C          60.1235   89.2659    7.9131 C.2     1  UNL1        0.2293
     19 O          59.5018   87.9279    8.1836 O.2     1  UNL1       -0.2746
     20 H          61.5519   90.7022    8.6827 H       1  UNL1        0.1519
     21 C          59.7247   90.0458    6.6954 C.3     1  UNL1        0.1141
     22 C          60.7692   90.4942    5.7167 C.2     1  UNL1       -0.0192
     23 C          60.3704   91.2740    4.4990 C.2     1  UNL1       -0.0145
     24 C          61.4150   91.7224    3.5202 C.2     1  UNL1       -0.0161
     25 C          62.8582   91.3910    3.7592 C.2     1  UNL1       -0.0038
     26 C          63.9027   91.8394    2.7804 C.2     1  UNL1        0.0009
     27 C          63.5040   92.6192    1.5627 C.2     1  UNL1        0.0153
     28 C          62.0607   92.9507    1.3238 C.2     1  UNL1        0.0665
     29 N          61.2376   93.6715    0.2976 N.2     1  UNL1       -0.2482
     30 C          59.8013   93.6040    0.7247 C.2     1  UNL1        0.0907
     31 C          59.5729   92.8338    2.0636 C.2     1  UNL1       -0.0142
     32 C          61.0162   92.5023    2.3025 C.3     1  UNL1        0.0819
     33 C          58.5284   92.3854    3.0423 C.3     1  UNL1        0.0447
     34 C          58.9272   91.6055    4.2600 C.3     1  UNL1        0.0837
     35 N          57.8827   91.1571    5.2387 N.3     1  UNL1       -0.2681
     36 C          56.4394   91.4885    4.9998 C.3     1  UNL1        0.0899
     37 C          58.2815   90.3772    6.4564 C.3     1  UNL1        0.0859
     38 C          61.1814   90.3030   10.8093 C.3     1  UNL1        0.0516
     39 C          59.7628   90.5434   11.2331 C.3     1  UNL1        0.0047
     40 C          62.2389   91.3214   11.1169 C.3     1  UNL1        0.0047
     41 C          62.8284   86.4613   13.7777 C.3     1  UNL1        0.0294
     42 C          65.0922   85.9257   14.9348 C.3     1  UNL1        0.0001
     43 C          64.1059   86.9271   14.4112 C.3     1  UNL1        0.0021
     44 C          64.3969   88.3945   14.5210 C.3     1  UNL1        0.0001
@<TRIPOS>BOND
     1    42    43    1
     2    43    44    1
     3    43    41    1
     4     1    41    1
     5     1     2    1
     6     2     3    2
     7     2     4   am
     8     4     5    1
     9     5     6    1
    10     6     7    1
    11     8     7    1
    12     8     9    1
    13     9    10    1
    14     9    11    1
    15    11    12    1
    16    12    17    1
    17    17    18   am
    18    18    19    2
    19    21    18    1
    20    21    22    1
    21    22    23    2
    22    23    24    1
    23    24    25    2
    24    25    26    1
    25    26    27    2
    26    27    28    1
    27    28    29    2
    28    29    30    1
    29    30    31    2
    30    31    32    1
    31    31    33    1
    32    34    33    1
    33    34    35    1
    34    35    36    1
    35    35    37    1
    36    12    38    1
    37    38    39    1
    38    38    40    1
    39    12    13    1
    40    13    14    2
    41    13    15   am
    42    15     1    1
    43     8     4    1
    44    15     9    1
    45    37    21    1
    46    34    23    1
    47    32    24    1
    48    32    28    1
    49    10    16    1
    50    17    20    1
