@<TRIPOS>MOLECULE
*****
 26 28 0 0 0
SMALL
GASTEIGER

@<TRIPOS>ATOM
      1 C          63.7147   86.7980   13.5492 C.ar    1  UNL1        0.0019
      2 C          64.3492   87.5621   14.6731 C.ar    1  UNL1        0.0032
      3 C          64.3936   89.0609   14.6301 C.ar    1  UNL1        0.0369
      4 C          63.8034   89.7954   13.4630 C.ar    1  UNL1        0.1386
      5 C          63.1689   89.0313   12.3390 C.ar    1  UNL1        0.0369
      6 C          63.1245   87.5325   12.3821 C.ar    1  UNL1        0.0032
      7 N          63.5817   82.3018   13.6784 N.ar    1  UNL1       -0.1862
      8 N          63.7862   83.0827   14.9426 N.ar    1  UNL1       -0.1630
      9 C          63.8306   84.5814   14.8995 C.ar    1  UNL1        0.1204
     10 C          63.6704   85.2992   13.5922 C.ar    1  UNL1        0.0257
     11 C          63.4658   84.5183   12.3280 C.ar    1  UNL1        0.0639
     12 C          63.4214   83.0196   12.3711 C.ar    1  UNL1        0.2786
     13 O          63.2168   82.2387   11.1068 O.2     1  UNL1       -0.2654
     14 C          63.5373   80.8031   13.7214 C.3     1  UNL1        0.2761
     15 C          60.9637   80.7477   14.0725 C.3     1  UNL1        0.1765
     16 O          62.2246   80.0877   13.5987 O.3     1  UNL1       -0.3284
     17 O          63.8478   91.2941   13.4200 O.3     1  UNL1       -0.4754
     18 C          65.1599   92.0011   13.2518 C.3     1  UNL1        0.2068
     19 C          65.6391   92.3770   11.8810 C.3     1  UNL1        0.0646
     20 C          66.9331   93.1176   11.7157 C.3     1  UNL1        0.0759
     21 N          67.1047   94.0835   10.5810 N.3     1  UNL1       -0.2738
     22 C          66.5842   95.4895   10.5335 C.3     1  UNL1        0.0721
     23 C          66.9848   96.0879    9.2176 C.3     1  UNL1        0.0187
     24 C          67.7529   95.0517    8.4519 C.3     1  UNL1        0.0174
     25 C          67.8270   93.8130    9.2944 C.3     1  UNL1        0.0576
     26 C          68.5044   92.5291    8.9168 C.3     1  UNL1        0.0173
@<TRIPOS>BOND
     1    15    16    1
     2    16    14    1
     3    14     7    1
     4     7     8   ar
     5     8     9   ar
     6     9    10   ar
     7    10     1    1
     8     1     2   ar
     9     2     3   ar
    10     3     4   ar
    11     4    17    1
    12    17    18    1
    13    18    19    1
    14    19    20    1
    15    20    21    1
    16    21    22    1
    17    22    23    1
    18    23    24    1
    19    24    25    1
    20    25    26    1
    21     4     5   ar
    22     5     6   ar
    23    10    11   ar
    24    11    12   ar
    25    12    13    2
    26    12     7   ar
    27     6     1   ar
    28    25    21    1
@<TRIPOS>MOLECULE
*****
 26 28 0 0 0
SMALL
GASTEIGER

@<TRIPOS>ATOM
      1 C          64.2972   89.5219   14.8017 C.ar    1  UNL1        0.0019
      2 C          63.5090   89.6869   16.0672 C.ar    1  UNL1        0.0032
      3 C          63.0267   88.4784   16.8134 C.ar    1  UNL1        0.0369
      4 C          63.3326   87.1048   16.2942 C.ar    1  UNL1        0.1386
      5 C          64.1208   86.9398   15.0287 C.ar    1  UNL1        0.0369
      6 C          64.6031   88.1483   14.2825 C.ar    1  UNL1        0.0032
      7 N          65.7442   93.1474   12.5630 N.ar    1  UNL1       -0.1862
      8 N          64.5496   92.3875   12.0678 N.ar    1  UNL1       -0.1630
      9 C          64.0673   91.1790   12.8140 C.ar    1  UNL1        0.1204
     10 C          64.7796   90.7304   14.0555 C.ar    1  UNL1        0.0257
     11 C          65.9742   91.4903   14.5508 C.ar    1  UNL1        0.0639
     12 C          66.4565   92.6988   13.8045 C.ar    1  UNL1        0.2786
     13 O          67.6512   93.4588   14.2999 O.2     1  UNL1       -0.2654
     14 C          66.2266   94.3559   11.8168 C.3     1  UNL1        0.2761
     15 C          67.5094   92.8386   10.1429 C.3     1  UNL1        0.1765
     16 O          67.2074   94.2012   10.6926 O.3     1  UNL1       -0.3284
     17 O          62.8502   85.8963   17.0404 O.3     1  UNL1       -0.4754
     18 C          62.1697   84.7816   16.3028 C.3     1  UNL1        0.2068
     19 C          62.9825   83.7980   15.5141 C.3     1  UNL1        0.0646
     20 C          62.3099   82.8878   14.5296 C.3     1  UNL1        0.0759
     21 N          62.8008   82.8204   13.1138 N.3     1  UNL1       -0.2738
     22 C          63.2453   83.9843   12.2784 C.3     1  UNL1        0.0721
     23 C          63.6526   83.4605   10.9331 C.3     1  UNL1        0.0187
     24 C          63.4600   81.9730   10.9371 C.3     1  UNL1        0.0174
     25 C          62.9335   81.5774   12.2848 C.3     1  UNL1        0.0576
     26 C          62.5986   80.1834   12.7261 C.3     1  UNL1        0.0173
@<TRIPOS>BOND
     1    15    16    1
     2    16    14    1
     3    14     7    1
     4     7     8   ar
     5     8     9   ar
     6     9    10   ar
     7    10     1    1
     8     1     2   ar
     9     2     3   ar
    10     3     4   ar
    11     4    17    1
    12    17    18    1
    13    18    19    1
    14    19    20    1
    15    20    21    1
    16    21    22    1
    17    22    23    1
    18    23    24    1
    19    24    25    1
    20    25    26    1
    21     4     5   ar
    22     5     6   ar
    23    10    11   ar
    24    11    12   ar
    25    12    13    2
    26    12     7   ar
    27     6     1   ar
    28    25    21    1
@<TRIPOS>MOLECULE
*****
 26 28 0 0 0
SMALL
GASTEIGER

@<TRIPOS>ATOM
      1 C          64.3193   89.6433   14.8703 C.ar    1  UNL1        0.0019
      2 C          63.5319   89.7775   16.1399 C.ar    1  UNL1        0.0032
      3 C          63.0508   88.5512   16.8573 C.ar    1  UNL1        0.0369
      4 C          63.3573   87.1906   16.3051 C.ar    1  UNL1        0.1386
      5 C          64.1447   87.0564   15.0356 C.ar    1  UNL1        0.0369
      6 C          64.6258   88.2827   14.3182 C.ar    1  UNL1        0.0032
      7 N          65.7625   93.3224   12.7181 N.ar    1  UNL1       -0.1862
      8 N          66.0840   93.1284   14.1703 N.ar    1  UNL1       -0.1630
      9 C          65.6029   91.9021   14.8877 C.ar    1  UNL1        0.1204
     10 C          64.8004   90.8697   14.1529 C.ar    1  UNL1        0.0257
     11 C          64.4789   91.0636   12.7007 C.ar    1  UNL1        0.0639
     12 C          64.9599   92.2899   11.9833 C.ar    1  UNL1        0.2786
     13 O          64.6384   92.4839   10.5310 O.2     1  UNL1       -0.2654
     14 C          66.2435   94.5487   12.0007 C.3     1  UNL1        0.2761
     15 C          67.1185   95.1533    9.6303 C.3     1  UNL1        0.1765
     16 O          67.2910   94.4309   10.9335 O.3     1  UNL1       -0.3284
     17 O          62.8762   85.9643   17.0225 O.3     1  UNL1       -0.4754
     18 C          62.2137   84.8583   16.2558 C.3     1  UNL1        0.2068
     19 C          63.0345   83.9504   15.3888 C.3     1  UNL1        0.0646
     20 C          62.3767   83.1584   14.2978 C.3     1  UNL1        0.0759
     21 N          63.0027   83.0936   12.9362 N.3     1  UNL1       -0.2738
     22 C          63.8272   81.9621   12.3977 C.3     1  UNL1        0.0721
     23 C          64.2481   82.3182   11.0027 C.3     1  UNL1        0.0187
     24 C          63.6838   83.6697   10.6790 C.3     1  UNL1        0.0174
     25 C          62.9141   84.1490   11.8739 C.3     1  UNL1        0.0576
     26 C          62.1840   85.4544   11.9868 C.3     1  UNL1        0.0173
@<TRIPOS>BOND
     1    15    16    1
     2    16    14    1
     3    14     7    1
     4     7     8   ar
     5     8     9   ar
     6     9    10   ar
     7    10     1    1
     8     1     2   ar
     9     2     3   ar
    10     3     4   ar
    11     4    17    1
    12    17    18    1
    13    18    19    1
    14    19    20    1
    15    20    21    1
    16    21    22    1
    17    22    23    1
    18    23    24    1
    19    24    25    1
    20    25    26    1
    21     4     5   ar
    22     5     6   ar
    23    10    11   ar
    24    11    12   ar
    25    12    13    2
    26    12     7   ar
    27     6     1   ar
    28    25    21    1
@<TRIPOS>MOLECULE
*****
 26 28 0 0 0
SMALL
GASTEIGER

@<TRIPOS>ATOM
      1 C          62.9136   89.2204   11.9009 C.ar    1  UNL1        0.0019
      2 C          63.4921   88.4685   13.0627 C.ar    1  UNL1        0.0032
      3 C          64.3352   89.1854   14.0752 C.ar    1  UNL1        0.0369
      4 C          64.5998   90.6543   13.9260 C.ar    1  UNL1        0.1386
      5 C          64.0213   91.4062   12.7642 C.ar    1  UNL1        0.0369
      6 C          63.1782   90.6893   11.7516 C.ar    1  UNL1        0.0032
      7 N          60.3843   87.0697    8.8633 N.ar    1  UNL1       -0.1862
      8 N          61.0918   86.2939    9.9346 N.ar    1  UNL1       -0.1630
      9 C          61.9349   87.0108   10.9471 C.ar    1  UNL1        0.1204
     10 C          62.0705   88.5035   10.8884 C.ar    1  UNL1        0.0257
     11 C          61.3630   89.2793    9.8171 C.ar    1  UNL1        0.0639
     12 C          60.5199   88.5624    8.8046 C.ar    1  UNL1        0.2786
     13 O          59.8124   89.3382    7.7333 O.2     1  UNL1       -0.2654
     14 C          59.5412   86.3528    7.8508 C.3     1  UNL1        0.2761
     15 C          61.6072   85.0879    6.9117 C.3     1  UNL1        0.1765
     16 O          60.1202   85.2153    7.0629 O.3     1  UNL1       -0.3284
     17 O          65.4429   91.3712   14.9385 O.3     1  UNL1       -0.4754
     18 C          66.9352   91.3965   14.7891 C.3     1  UNL1        0.2068
     19 C          67.5778   92.3665   13.8424 C.3     1  UNL1        0.0646
     20 C          67.5913   92.0802   12.3699 C.3     1  UNL1        0.0759
     21 N          67.1500   93.1332   11.3971 N.3     1  UNL1       -0.2738
     22 C          66.2175   94.2705   11.6917 C.3     1  UNL1        0.0721
     23 C          66.0549   95.0740   10.4355 C.3     1  UNL1        0.0187
     24 C          66.8869   94.4332    9.3645 C.3     1  UNL1        0.0174
     25 C          67.5637   93.2337    9.9588 C.3     1  UNL1        0.0576
     26 C          68.4913   92.2989    9.2408 C.3     1  UNL1        0.0173
@<TRIPOS>BOND
     1    15    16    1
     2    16    14    1
     3    14     7    1
     4     7     8   ar
     5     8     9   ar
     6     9    10   ar
     7    10     1    1
     8     1     2   ar
     9     2     3   ar
    10     3     4   ar
    11     4    17    1
    12    17    18    1
    13    18    19    1
    14    19    20    1
    15    20    21    1
    16    21    22    1
    17    22    23    1
    18    23    24    1
    19    24    25    1
    20    25    26    1
    21     4     5   ar
    22     5     6   ar
    23    10    11   ar
    24    11    12   ar
    25    12    13    2
    26    12     7   ar
    27     6     1   ar
    28    25    21    1
@<TRIPOS>MOLECULE
*****
 26 28 0 0 0
SMALL
GASTEIGER

@<TRIPOS>ATOM
      1 C          63.6353   87.1811   13.3288 C.ar    1  UNL1        0.0019
      2 C          63.1549   88.1361   12.2766 C.ar    1  UNL1        0.0032
      3 C          63.3569   89.6118   12.4545 C.ar    1  UNL1        0.0369
      4 C          64.0392   90.1324   13.6847 C.ar    1  UNL1        0.1386
      5 C          64.5195   89.1774   14.7369 C.ar    1  UNL1        0.0369
      6 C          64.3176   87.7017   14.5589 C.ar    1  UNL1        0.0032
      7 N          63.0294   82.7542   12.7948 N.ar    1  UNL1       -0.1862
      8 N          62.5958   83.7056   11.7194 N.ar    1  UNL1       -0.1630
      9 C          62.7977   85.1813   11.8973 C.ar    1  UNL1        0.1204
     10 C          63.4333   85.7055   13.1508 C.ar    1  UNL1        0.0257
     11 C          63.8669   84.7540   14.2263 C.ar    1  UNL1        0.0639
     12 C          63.6650   83.2784   14.0483 C.ar    1  UNL1        0.2786
     13 O          64.0986   82.3269   15.1238 O.2     1  UNL1       -0.2654
     14 C          62.8274   81.2785   12.6169 C.3     1  UNL1        0.2761
     15 C          60.7364   80.8148   14.0874 C.3     1  UNL1        0.1765
     16 O          62.1428   80.4808   13.6868 O.3     1  UNL1       -0.3284
     17 O          64.2412   91.6081   13.8627 O.3     1  UNL1       -0.4754
     18 C          65.5769   92.1354   14.2960 C.3     1  UNL1        0.2068
     19 C          66.5862   92.5559   13.2692 C.3     1  UNL1        0.0646
     20 C          66.2815   93.6933   12.3399 C.3     1  UNL1        0.0759
     21 N          66.9435   93.7614   10.9956 N.3     1  UNL1       -0.2738
     22 C          67.5642   92.6115   10.2592 C.3     1  UNL1        0.0721
     23 C          68.1054   93.1308    8.9601 C.3     1  UNL1        0.0187
     24 C          67.8191   94.6017    8.8937 C.3     1  UNL1        0.0174
     25 C          67.1010   94.9914   10.1517 C.3     1  UNL1        0.0576
     26 C          66.6242   96.3693   10.5038 C.3     1  UNL1        0.0173
@<TRIPOS>BOND
     1    15    16    1
     2    16    14    1
     3    14     7    1
     4     7     8   ar
     5     8     9   ar
     6     9    10   ar
     7    10     1    1
     8     1     2   ar
     9     2     3   ar
    10     3     4   ar
    11     4    17    1
    12    17    18    1
    13    18    19    1
    14    19    20    1
    15    20    21    1
    16    21    22    1
    17    22    23    1
    18    23    24    1
    19    24    25    1
    20    25    26    1
    21     4     5   ar
    22     5     6   ar
    23    10    11   ar
    24    11    12   ar
    25    12    13    2
    26    12     7   ar
    27     6     1   ar
    28    25    21    1
@<TRIPOS>MOLECULE
*****
 26 28 0 0 0
SMALL
GASTEIGER

@<TRIPOS>ATOM
      1 C          63.0287   90.6555   11.7114 C.ar    1  UNL1        0.0019
      2 C          61.9790   89.9093   12.4802 C.ar    1  UNL1        0.0032
      3 C          60.9244   89.1322   11.7494 C.ar    1  UNL1        0.0369
      4 C          60.9196   89.1013   10.2497 C.ar    1  UNL1        0.1386
      5 C          61.9694   89.8476    9.4809 C.ar    1  UNL1        0.0369
      6 C          63.0239   90.6247   10.2117 C.ar    1  UNL1        0.0032
      7 N          66.1923   92.9868   13.9038 N.ar    1  UNL1       -0.1862
      8 N          65.3230   92.0178   14.6491 N.ar    1  UNL1       -0.1630
      9 C          64.2685   91.2408   13.9183 C.ar    1  UNL1        0.1204
     10 C          64.0832   91.4326   12.4422 C.ar    1  UNL1        0.0257
     11 C          64.9525   92.4015   11.6969 C.ar    1  UNL1        0.0639
     12 C          66.0071   93.1786   12.4278 C.ar    1  UNL1        0.2786
     13 O          66.8764   94.1476   11.6824 O.2     1  UNL1       -0.2654
     14 C          67.2468   93.7639   14.6347 C.3     1  UNL1        0.2761
     15 C          68.7795   92.2838   16.1214 C.3     1  UNL1        0.1765
     16 O          68.5842   93.1413   14.9063 O.3     1  UNL1       -0.3284
     17 O          59.8651   88.3243    9.5189 O.3     1  UNL1       -0.4754
     18 C          60.1396   86.9162    9.0807 C.3     1  UNL1        0.2068
     19 C          61.4645   86.2814    9.3832 C.3     1  UNL1        0.0646
     20 C          61.7184   85.6836   10.7354 C.3     1  UNL1        0.0759
     21 N          62.7651   84.6220   10.9015 N.3     1  UNL1       -0.2738
     22 C          63.5314   83.9587    9.7958 C.3     1  UNL1        0.0721
     23 C          64.4691   82.9641   10.4134 C.3     1  UNL1        0.0187
     24 C          64.2823   83.0127   11.9010 C.3     1  UNL1        0.0174
     25 C          63.2292   84.0374   12.2026 C.3     1  UNL1        0.0576
     26 C          62.7281   84.4117   13.5660 C.3     1  UNL1        0.0173
@<TRIPOS>BOND
     1    15    16    1
     2    16    14    1
     3    14     7    1
     4     7     8   ar
     5     8     9   ar
     6     9    10   ar
     7    10     1    1
     8     1     2   ar
     9     2     3   ar
    10     3     4   ar
    11     4    17    1
    12    17    18    1
    13    18    19    1
    14    19    20    1
    15    20    21    1
    16    21    22    1
    17    22    23    1
    18    23    24    1
    19    24    25    1
    20    25    26    1
    21     4     5   ar
    22     5     6   ar
    23    10    11   ar
    24    11    12   ar
    25    12    13    2
    26    12     7   ar
    27     6     1   ar
    28    25    21    1
@<TRIPOS>MOLECULE
*****
 26 28 0 0 0
SMALL
GASTEIGER

@<TRIPOS>ATOM
      1 C          62.0178   85.6641   10.1444 C.ar    1  UNL1        0.0019
      2 C          61.8854   85.7107   11.6377 C.ar    1  UNL1        0.0032
      3 C          62.6971   84.7825   12.4920 C.ar    1  UNL1        0.0369
      4 C          63.6412   83.8078   11.8528 C.ar    1  UNL1        0.1386
      5 C          63.7735   83.7612   10.3594 C.ar    1  UNL1        0.0369
      6 C          62.9618   84.6893    9.5052 C.ar    1  UNL1        0.0032
      7 N          59.5827   88.4485    7.5817 N.ar    1  UNL1       -0.1862
      8 N          59.8103   87.0322    7.1435 N.ar    1  UNL1       -0.1630
      9 C          60.6220   86.1040    7.9977 C.ar    1  UNL1        0.1204
     10 C          61.2061   86.5922    9.2901 C.ar    1  UNL1        0.0257
     11 C          60.9785   88.0086    9.7283 C.ar    1  UNL1        0.0639
     12 C          60.1668   88.9367    8.8741 C.ar    1  UNL1        0.2786
     13 O          59.9392   90.3532    9.3124 O.2     1  UNL1       -0.2654
     14 C          58.7710   89.3767    6.7275 C.3     1  UNL1        0.2761
     15 C          58.7050   91.3802    5.0748 C.3     1  UNL1        0.1765
     16 O          59.4483   90.2397    5.7046 O.3     1  UNL1       -0.3284
     17 O          64.4529   82.8796   12.7070 O.3     1  UNL1       -0.4754
     18 C          64.5488   83.1124   14.1857 C.3     1  UNL1        0.2068
     19 C          64.8382   84.4871   14.7114 C.3     1  UNL1        0.0646
     20 C          63.9251   85.1099   15.7256 C.3     1  UNL1        0.0759
     21 N          63.7837   86.6018   15.7914 N.3     1  UNL1       -0.2738
     22 C          64.2318   87.5770   14.7435 C.3     1  UNL1        0.0721
     23 C          63.8944   88.9583   15.2212 C.3     1  UNL1        0.0187
     24 C          63.2377   88.8368   16.5643 C.3     1  UNL1        0.0174
     25 C          63.1693   87.3804   16.9167 C.3     1  UNL1        0.0576
     26 C          62.5884   86.8038   18.1737 C.3     1  UNL1        0.0173
@<TRIPOS>BOND
     1    15    16    1
     2    16    14    1
     3    14     7    1
     4     7     8   ar
     5     8     9   ar
     6     9    10   ar
     7    10     1    1
     8     1     2   ar
     9     2     3   ar
    10     3     4   ar
    11     4    17    1
    12    17    18    1
    13    18    19    1
    14    19    20    1
    15    20    21    1
    16    21    22    1
    17    22    23    1
    18    23    24    1
    19    24    25    1
    20    25    26    1
    21     4     5   ar
    22     5     6   ar
    23    10    11   ar
    24    11    12   ar
    25    12    13    2
    26    12     7   ar
    27     6     1   ar
    28    25    21    1
@<TRIPOS>MOLECULE
*****
 26 28 0 0 0
SMALL
GASTEIGER

@<TRIPOS>ATOM
      1 C          61.1868   86.7257    9.4206 C.ar    1  UNL1        0.0019
      2 C          61.2648   88.2109    9.6157 C.ar    1  UNL1        0.0032
      3 C          60.5030   89.1280    8.7055 C.ar    1  UNL1        0.0369
      4 C          59.6633   88.5599    7.6000 C.ar    1  UNL1        0.1386
      5 C          59.5852   87.0748    7.4049 C.ar    1  UNL1        0.0369
      6 C          60.3470   86.1576    8.3151 C.ar    1  UNL1        0.0032
      7 N          63.4720   83.9743   12.1514 N.ar    1  UNL1       -0.1862
      8 N          62.5406   84.9991   12.7276 N.ar    1  UNL1       -0.1630
      9 C          61.7788   85.9163   11.8173 C.ar    1  UNL1        0.1204
     10 C          61.9485   85.8086   10.3309 C.ar    1  UNL1        0.0257
     11 C          62.8800   84.7837    9.7547 C.ar    1  UNL1        0.0639
     12 C          63.6418   83.8666   10.6650 C.ar    1  UNL1        0.2786
     13 O          64.5733   82.8417   10.0887 O.2     1  UNL1       -0.2654
     14 C          64.2338   83.0572   13.0617 C.3     1  UNL1        0.2761
     15 C          62.7994   80.9027   13.2872 C.3     1  UNL1        0.1765
     16 O          64.0911   81.5708   12.9194 O.3     1  UNL1       -0.3284
     17 O          58.9015   89.4771    6.6897 O.3     1  UNL1       -0.4754
     18 C          59.6296   90.2770    5.6505 C.3     1  UNL1        0.2068
     19 C          58.9230   91.3831    4.9244 C.3     1  UNL1        0.0646
     20 C          59.6910   92.5837    4.4567 C.3     1  UNL1        0.0759
     21 N          60.2551   92.6187    3.0672 N.3     1  UNL1       -0.2738
     22 C          59.5626   93.1507    1.8476 C.3     1  UNL1        0.0721
     23 C          60.4902   92.9885    0.6800 C.3     1  UNL1        0.0187
     24 C          61.7560   92.3563    1.1780 C.3     1  UNL1        0.0174
     25 C          61.6107   92.1277    2.6533 C.3     1  UNL1        0.0576
     26 C          62.6402   91.5156    3.5563 C.3     1  UNL1        0.0173
@<TRIPOS>BOND
     1    15    16    1
     2    16    14    1
     3    14     7    1
     4     7     8   ar
     5     8     9   ar
     6     9    10   ar
     7    10     1    1
     8     1     2   ar
     9     2     3   ar
    10     3     4   ar
    11     4    17    1
    12    17    18    1
    13    18    19    1
    14    19    20    1
    15    20    21    1
    16    21    22    1
    17    22    23    1
    18    23    24    1
    19    24    25    1
    20    25    26    1
    21     4     5   ar
    22     5     6   ar
    23    10    11   ar
    24    11    12   ar
    25    12    13    2
    26    12     7   ar
    27     6     1   ar
    28    25    21    1
@<TRIPOS>MOLECULE
*****
 26 28 0 0 0
SMALL
GASTEIGER

@<TRIPOS>ATOM
      1 C          62.8234   86.6964   11.9080 C.ar    1  UNL1        0.0019
      2 C          62.1329   87.0671   10.6291 C.ar    1  UNL1        0.0032
      3 C          62.0134   88.5086   10.2318 C.ar    1  UNL1        0.0369
      4 C          62.5844   89.5794   11.1134 C.ar    1  UNL1        0.1386
      5 C          63.2750   89.2087   12.3923 C.ar    1  UNL1        0.0369
      6 C          63.3945   87.7672   12.7896 C.ar    1  UNL1        0.0032
      7 N          63.1819   82.3719   13.0998 N.ar    1  UNL1       -0.1862
      8 N          62.6591   82.7347   11.7416 N.ar    1  UNL1       -0.1630
      9 C          62.5396   84.1762   11.3443 C.ar    1  UNL1        0.1204
     10 C          62.9429   85.2549   12.3053 C.ar    1  UNL1        0.0257
     11 C          63.4658   84.8922   13.6635 C.ar    1  UNL1        0.0639
     12 C          63.5853   83.4507   14.0608 C.ar    1  UNL1        0.2786
     13 O          64.1082   83.0880   15.4192 O.2     1  UNL1       -0.2654
     14 C          63.3014   80.9305   13.4971 C.3     1  UNL1        0.2761
     15 C          60.7992   80.5503   14.0839 C.3     1  UNL1        0.1765
     16 O          62.0870   80.0501   13.4997 O.3     1  UNL1       -0.3284
     17 O          62.4649   91.0209   10.7161 O.3     1  UNL1       -0.4754
     18 C          63.6077   91.7062   10.0274 C.3     1  UNL1        0.2068
     19 C          64.8210   92.1117   10.8107 C.3     1  UNL1        0.0646
     20 C          64.7166   92.3426   12.2892 C.3     1  UNL1        0.0759
     21 N          65.9058   92.1030   13.1715 N.3     1  UNL1       -0.2738
     22 C          67.3374   92.3728   12.8143 C.3     1  UNL1        0.0721
     23 C          68.1885   91.9881   13.9879 C.3     1  UNL1        0.0187
     24 C          67.2829   91.4804   15.0706 C.3     1  UNL1        0.0174
     25 C          65.8721   91.5514   14.5660 C.3     1  UNL1        0.0576
     26 C          64.6434   91.1427   15.3231 C.3     1  UNL1        0.0173
@<TRIPOS>BOND
     1    15    16    1
     2    16    14    1
     3    14     7    1
     4     7     8   ar
     5     8     9   ar
     6     9    10   ar
     7    10     1    1
     8     1     2   ar
     9     2     3   ar
    10     3     4   ar
    11     4    17    1
    12    17    18    1
    13    18    19    1
    14    19    20    1
    15    20    21    1
    16    21    22    1
    17    22    23    1
    18    23    24    1
    19    24    25    1
    20    25    26    1
    21     4     5   ar
    22     5     6   ar
    23    10    11   ar
    24    11    12   ar
    25    12    13    2
    26    12     7   ar
    27     6     1   ar
    28    25    21    1
