@<TRIPOS>MOLECULE
*****
 38 42 0 0 0
SMALL
GASTEIGER

@<TRIPOS>ATOM
      1 C          60.7039   87.7699    8.5752 C.ar    1  UNL1        0.0044
      2 C          60.1594   87.7292    7.1781 C.ar    1  UNL1        0.0001
      3 C          59.3489   88.8780    6.6553 C.ar    1  UNL1        0.0000
      4 C          59.0828   90.0675    7.5297 C.ar    1  UNL1        0.0001
      5 C          59.6272   90.1081    8.9268 C.ar    1  UNL1        0.0045
      6 C          60.4377   88.9593    9.4495 C.ar    1  UNL1        0.0536
      7 C          60.9821   88.9999   10.8467 C.2     1  UNL1        0.2490
      8 O          60.3519   88.1650   11.9218 O.2     1  UNL1       -0.2699
      9 N          62.1567   89.8755   11.1688 N.am    1  UNL1       -0.2761
     10 C          62.7869   90.7104   10.0937 C.3     1  UNL1        0.0937
     11 C          63.9615   91.5859   10.4158 C.3     1  UNL1        0.0219
     12 C          64.5059   91.6265   11.8129 C.3     1  UNL1        0.0078
     13 C          63.8757   90.7916   12.8880 C.3     1  UNL1        0.0219
     14 C          62.7011   89.9161   12.5659 C.3     1  UNL1        0.0937
     15 C          65.6805   92.5021   12.1350 C.3     1  UNL1        0.0265
     16 C          66.2529   93.4059   11.0836 C.ar    1  UNL1       -0.0220
     17 C          65.7819   94.8260   10.9779 C.ar    1  UNL1       -0.0020
     18 C          66.3543   95.7298    9.9265 C.ar    1  UNL1        0.0293
     19 C          67.3977   95.2134    8.9807 C.ar    1  UNL1        0.1401
     20 F          67.9701   96.1172    7.9292 F       1  UNL1       -0.2042
     21 C          67.8687   93.7933    9.0863 C.ar    1  UNL1        0.0293
     22 C          67.2963   92.8895   10.1377 C.ar    1  UNL1       -0.0020
     23 C          63.1355   84.3235   10.1436 C.ar    1  UNL1       -0.0061
     24 C          63.3801   84.8451    8.7586 C.ar    1  UNL1       -0.0029
     25 C          62.5696   85.9939    8.2358 C.ar    1  UNL1       -0.0003
     26 C          61.5144   86.6211    9.0980 C.ar    1  UNL1        0.0001
     27 C          61.2698   86.0995   10.4829 C.ar    1  UNL1       -0.0003
     28 C          62.0804   84.9507   11.0057 C.ar    1  UNL1       -0.0029
     29 C          63.9461   83.1747   10.6664 C.3     1  UNL1        0.0992
     30 C          64.1780   83.6787   15.8328 C.3     1  UNL1        0.0186
     31 C          63.7935   82.8822   14.6213 C.3     1  UNL1        0.0702
     32 C          64.0620   83.4267   13.2496 C.3     1  UNL1        0.0882
     33 N          63.6776   82.6302   12.0381 N.3     1  UNL1       -0.2666
     34 C          63.0247   81.2893   12.1982 C.3     1  UNL1        0.0882
     35 C          62.7562   80.7449   13.5698 C.3     1  UNL1        0.0702
     36 C          62.1033   79.4039   13.7300 C.3     1  UNL1        0.0186
     37 N          63.1406   81.5414   14.7814 N.3     1  UNL1       -0.2974
     38 H          63.7841   80.9632   15.3218 H       1  UNL1        0.1232
@<TRIPOS>BOND
     1    31    30    1
     2    31    32    1
     3    32    33    1
     4    33    29    1
     5    29    23    1
     6    23    24   ar
     7    24    25   ar
     8    25    26   ar
     9    26     1    1
    10     1     2   ar
    11     2     3   ar
    12     3     4   ar
    13     4     5   ar
    14     5     6   ar
    15     6     7    1
    16     7     8    2
    17     7     9   am
    18     9    10    1
    19    10    11    1
    20    11    12    1
    21    12    15    1
    22    15    16    1
    23    16    17   ar
    24    17    18   ar
    25    18    19   ar
    26    19    20    1
    27    19    21   ar
    28    21    22   ar
    29    12    13    1
    30    13    14    1
    31    26    27   ar
    32    27    28   ar
    33    33    34    1
    34    34    35    1
    35    35    36    1
    36    35    37    1
    37    37    31    1
    38    28    23   ar
    39     6     1   ar
    40    14     9    1
    41    22    16   ar
    42    37    38    1
@<TRIPOS>MOLECULE
*****
 38 42 0 0 0
SMALL
GASTEIGER

@<TRIPOS>ATOM
      1 C          60.6934   87.7644    8.5671 C.ar    1  UNL1        0.0044
      2 C          60.1546   87.7183    7.1679 C.ar    1  UNL1        0.0001
      3 C          59.3448   88.8643    6.6380 C.ar    1  UNL1        0.0000
      4 C          59.0737   90.0564    7.5072 C.ar    1  UNL1        0.0001
      5 C          59.6125   90.1024    8.9063 C.ar    1  UNL1        0.0045
      6 C          60.4223   88.9564    9.4363 C.ar    1  UNL1        0.0536
      7 C          60.9611   89.0025   10.8355 C.2     1  UNL1        0.2490
      8 O          60.3242   88.1747   11.9120 O.2     1  UNL1       -0.2699
      9 N          62.1368   89.8764   11.1580 N.am    1  UNL1       -0.2761
     10 C          62.7738   90.7042   10.0815 C.3     1  UNL1        0.0937
     11 C          63.9494   91.5781   10.4040 C.3     1  UNL1        0.0219
     12 C          64.4882   91.6242   11.8032 C.3     1  UNL1        0.0078
     13 C          63.8512   90.7963   12.8798 C.3     1  UNL1        0.0219
     14 C          62.6755   89.9224   12.5572 C.3     1  UNL1        0.0937
     15 C          65.6639   92.4980   12.1258 C.3     1  UNL1        0.0265
     16 C          66.2391   93.3997   11.0741 C.ar    1  UNL1       -0.0220
     17 C          67.2915   92.8841   10.1380 C.ar    1  UNL1       -0.0020
     18 C          67.8668   93.7858    9.0863 C.ar    1  UNL1        0.0293
     19 C          67.3895   95.2032    8.9708 C.ar    1  UNL1        0.1401
     20 F          67.9647   96.1049    7.9191 F       1  UNL1       -0.2042
     21 C          66.3371   95.7188    9.9069 C.ar    1  UNL1        0.0293
     22 C          65.7618   94.8171   10.9586 C.ar    1  UNL1       -0.0020
     23 C          63.1229   84.3264   10.1569 C.ar    1  UNL1       -0.0061
     24 C          63.3576   84.8295    8.7634 C.ar    1  UNL1       -0.0029
     25 C          62.5478   85.9755    8.2334 C.ar    1  UNL1       -0.0003
     26 C          61.5032   86.6184    9.0970 C.ar    1  UNL1        0.0001
     27 C          61.2686   86.1152   10.4905 C.ar    1  UNL1       -0.0003
     28 C          62.0784   84.9692   11.0204 C.ar    1  UNL1       -0.0029
     29 C          63.9327   83.1803   10.6868 C.3     1  UNL1        0.0992
     30 C          62.0698   79.4256   13.7579 C.3     1  UNL1        0.0186
     31 C          62.7285   80.7634   13.5951 C.3     1  UNL1        0.0702
     32 C          63.0012   81.3030   12.2224 C.3     1  UNL1        0.0882
     33 N          63.6600   82.6407   12.0596 N.3     1  UNL1       -0.2666
     34 C          64.0459   83.4389   13.2696 C.3     1  UNL1        0.0882
     35 C          63.7732   82.8993   14.6423 C.3     1  UNL1        0.0702
     36 C          64.1591   83.6974   15.8523 C.3     1  UNL1        0.0186
     37 N          63.1145   81.5615   14.8051 N.3     1  UNL1       -0.2974
     38 H          62.2600   81.7172   15.3400 H       1  UNL1        0.1232
@<TRIPOS>BOND
     1    31    30    1
     2    31    32    1
     3    32    33    1
     4    33    29    1
     5    29    23    1
     6    23    24   ar
     7    24    25   ar
     8    25    26   ar
     9    26     1    1
    10     1     2   ar
    11     2     3   ar
    12     3     4   ar
    13     4     5   ar
    14     5     6   ar
    15     6     7    1
    16     7     8    2
    17     7     9   am
    18     9    10    1
    19    10    11    1
    20    11    12    1
    21    12    15    1
    22    15    16    1
    23    16    17   ar
    24    17    18   ar
    25    18    19   ar
    26    19    20    1
    27    19    21   ar
    28    21    22   ar
    29    12    13    1
    30    13    14    1
    31    26    27   ar
    32    27    28   ar
    33    33    34    1
    34    34    35    1
    35    35    36    1
    36    35    37    1
    37    37    31    1
    38    28    23   ar
    39     6     1   ar
    40    14     9    1
    41    22    16   ar
    42    37    38    1
@<TRIPOS>MOLECULE
*****
 38 42 0 0 0
SMALL
GASTEIGER

@<TRIPOS>ATOM
      1 C          60.7097   87.7377    8.5679 C.ar    1  UNL1        0.0044
      2 C          60.1213   87.6761    7.1894 C.ar    1  UNL1        0.0001
      3 C          59.3144   88.8274    6.6663 C.ar    1  UNL1        0.0000
      4 C          59.0960   90.0401    7.5217 C.ar    1  UNL1        0.0001
      5 C          59.6844   90.1016    8.9000 C.ar    1  UNL1        0.0045
      6 C          60.4913   88.9504    9.4231 C.ar    1  UNL1        0.0536
      7 C          61.0798   89.0120   10.8016 C.2     1  UNL1        0.2490
      8 O          60.5268   88.1436   11.8925 O.2     1  UNL1       -0.2699
      9 N          62.2211   89.9418   11.0890 N.am    1  UNL1       -0.2761
     10 C          62.7741   90.8102    9.9980 C.3     1  UNL1        0.0937
     11 C          63.9154   91.7401   10.2854 C.3     1  UNL1        0.0219
     12 C          64.5039   91.8016   11.6638 C.3     1  UNL1        0.0078
     13 C          63.9509   90.9333   12.7548 C.3     1  UNL1        0.0219
     14 C          62.8095   90.0034   12.4673 C.3     1  UNL1        0.0937
     15 C          65.6452   92.7315   11.9512 C.3     1  UNL1        0.0265
     16 C          66.4581   92.5577   13.1998 C.ar    1  UNL1       -0.0220
     17 C          65.8951   92.9761   14.5256 C.ar    1  UNL1       -0.0020
     18 C          66.7080   92.8023   15.7742 C.ar    1  UNL1        0.0293
     19 C          68.0839   92.2100   15.6970 C.ar    1  UNL1        0.1401
     20 F          68.8968   92.0362   16.9456 F       1  UNL1       -0.2042
     21 C          68.6469   91.7916   14.3711 C.ar    1  UNL1        0.0293
     22 C          67.8340   91.9654   13.1226 C.ar    1  UNL1       -0.0020
     23 C          63.1304   84.2840   10.1371 C.ar    1  UNL1       -0.0061
     24 C          63.4213   84.8474    8.7776 C.ar    1  UNL1       -0.0029
     25 C          62.6144   85.9986    8.2545 C.ar    1  UNL1       -0.0003
     26 C          61.5166   86.5865    9.0909 C.ar    1  UNL1        0.0001
     27 C          61.2259   86.0231   10.4504 C.ar    1  UNL1       -0.0003
     28 C          62.0328   84.8719   10.9734 C.ar    1  UNL1       -0.0029
     29 C          63.9373   83.1328   10.6602 C.3     1  UNL1        0.0992
     30 C          62.1874   79.3167   13.7220 C.3     1  UNL1        0.0186
     31 C          62.7912   80.6805   13.5623 C.3     1  UNL1        0.0702
     32 C          63.0624   81.2247   12.1912 C.3     1  UNL1        0.0882
     33 N          63.6661   82.5886   12.0315 N.3     1  UNL1       -0.2666
     34 C          63.9986   83.4081   13.2429 C.3     1  UNL1        0.0882
     35 C          63.7274   82.8638   14.6141 C.3     1  UNL1        0.0702
     36 C          64.0599   83.6834   15.8257 C.3     1  UNL1        0.0186
     37 N          63.1237   81.5000   14.7738 N.3     1  UNL1       -0.2974
     38 H          62.2551   81.6217   15.2945 H       1  UNL1        0.1232
@<TRIPOS>BOND
     1    31    30    1
     2    31    32    1
     3    32    33    1
     4    33    29    1
     5    29    23    1
     6    23    24   ar
     7    24    25   ar
     8    25    26   ar
     9    26     1    1
    10     1     2   ar
    11     2     3   ar
    12     3     4   ar
    13     4     5   ar
    14     5     6   ar
    15     6     7    1
    16     7     8    2
    17     7     9   am
    18     9    10    1
    19    10    11    1
    20    11    12    1
    21    12    15    1
    22    15    16    1
    23    16    17   ar
    24    17    18   ar
    25    18    19   ar
    26    19    20    1
    27    19    21   ar
    28    21    22   ar
    29    12    13    1
    30    13    14    1
    31    26    27   ar
    32    27    28   ar
    33    33    34    1
    34    34    35    1
    35    35    36    1
    36    35    37    1
    37    37    31    1
    38    28    23   ar
    39     6     1   ar
    40    14     9    1
    41    22    16   ar
    42    37    38    1
@<TRIPOS>MOLECULE
*****
 38 42 0 0 0
SMALL
GASTEIGER

@<TRIPOS>ATOM
      1 C          62.0770   92.9171    1.7097 C.ar    1  UNL1        0.0044
      2 C          62.6598   91.7325    2.4218 C.ar    1  UNL1        0.0001
      3 C          62.0319   91.2366    3.6906 C.ar    1  UNL1        0.0000
      4 C          60.8211   91.9253    4.2472 C.ar    1  UNL1        0.0001
      5 C          60.2384   93.1099    3.5351 C.ar    1  UNL1        0.0045
      6 C          60.8663   93.6058    2.2664 C.ar    1  UNL1        0.0536
      7 C          60.2835   94.7904    1.5542 C.2     1  UNL1        0.2490
      8 O          60.7982   96.1688    1.8462 O.2     1  UNL1       -0.2699
      9 N          59.1861   94.5967    0.5502 N.am    1  UNL1       -0.2761
     10 C          58.6715   93.2183    0.2582 C.3     1  UNL1        0.0937
     11 C          57.5741   93.0246   -0.7459 C.3     1  UNL1        0.0219
     12 C          56.9913   94.2092   -1.4580 C.3     1  UNL1        0.0078
     13 C          57.5060   95.5876   -1.1660 C.3     1  UNL1        0.0219
     14 C          58.6034   95.7813   -0.1619 C.3     1  UNL1        0.0937
     15 C          55.8939   94.0154   -2.4620 C.3     1  UNL1        0.0265
     16 C          56.1659   93.2722   -3.7363 C.ar    1  UNL1       -0.0220
     17 C          56.6181   91.8428   -3.6889 C.ar    1  UNL1       -0.0020
     18 C          56.8900   91.0996   -4.9632 C.ar    1  UNL1        0.0293
     19 C          56.7097   91.7858   -6.2848 C.ar    1  UNL1        0.1401
     20 F          56.9816   91.0426   -7.5590 F       1  UNL1       -0.2042
     21 C          56.2575   93.2152   -6.3321 C.ar    1  UNL1        0.0293
     22 C          55.9856   93.9584   -5.0578 C.ar    1  UNL1       -0.0020
     23 C          63.9608   94.4048   -2.0966 C.ar    1  UNL1       -0.0061
     24 C          64.5039   94.8445   -0.7693 C.ar    1  UNL1       -0.0029
     25 C          63.8760   94.3486    0.4995 C.ar    1  UNL1       -0.0003
     26 C          62.7050   93.4130    0.4409 C.ar    1  UNL1        0.0001
     27 C          62.1619   92.9733   -0.8864 C.ar    1  UNL1       -0.0003
     28 C          62.7899   93.4692   -2.1551 C.ar    1  UNL1       -0.0029
     29 C          64.5888   94.9007   -3.3654 C.3     1  UNL1        0.0992
     30 C          61.5209   94.8322   -7.5587 C.3     1  UNL1        0.0186
     31 C          62.6667   94.2599   -6.7779 C.3     1  UNL1        0.0702
     32 C          63.0549   94.8664   -5.4621 C.3     1  UNL1        0.0882
     33 N          64.2006   94.2941   -4.6813 N.3     1  UNL1       -0.2666
     34 C          64.9582   93.1152   -5.2163 C.3     1  UNL1        0.0882
     35 C          64.5701   92.5087   -6.5321 C.3     1  UNL1        0.0702
     36 C          65.3277   91.3298   -7.0672 C.3     1  UNL1        0.0186
     37 N          63.4243   93.0810   -7.3129 N.3     1  UNL1       -0.2974
     38 H          62.7476   92.3280   -7.4375 H       1  UNL1        0.1232
@<TRIPOS>BOND
     1    31    30    1
     2    31    32    1
     3    32    33    1
     4    33    29    1
     5    29    23    1
     6    23    24   ar
     7    24    25   ar
     8    25    26   ar
     9    26     1    1
    10     1     2   ar
    11     2     3   ar
    12     3     4   ar
    13     4     5   ar
    14     5     6   ar
    15     6     7    1
    16     7     8    2
    17     7     9   am
    18     9    10    1
    19    10    11    1
    20    11    12    1
    21    12    15    1
    22    15    16    1
    23    16    17   ar
    24    17    18   ar
    25    18    19   ar
    26    19    20    1
    27    19    21   ar
    28    21    22   ar
    29    12    13    1
    30    13    14    1
    31    26    27   ar
    32    27    28   ar
    33    33    34    1
    34    34    35    1
    35    35    36    1
    36    35    37    1
    37    37    31    1
    38    28    23   ar
    39     6     1   ar
    40    14     9    1
    41    22    16   ar
    42    37    38    1
@<TRIPOS>MOLECULE
*****
 38 42 0 0 0
SMALL
GASTEIGER

@<TRIPOS>ATOM
      1 C          62.6194   93.1042    1.9583 C.ar    1  UNL1        0.0044
      2 C          63.3471   91.9384    2.5596 C.ar    1  UNL1        0.0001
      3 C          62.6737   91.0871    3.5950 C.ar    1  UNL1        0.0000
      4 C          61.2727   91.4017    4.0290 C.ar    1  UNL1        0.0001
      5 C          60.5451   92.5675    3.4277 C.ar    1  UNL1        0.0045
      6 C          61.2185   93.4187    2.3924 C.ar    1  UNL1        0.0536
      7 C          60.4909   94.5846    1.7911 C.2     1  UNL1        0.2490
      8 O          60.6708   95.9583    2.3659 O.2     1  UNL1       -0.2699
      9 N          59.5834   94.3766    0.6150 N.am    1  UNL1       -0.2761
     10 C          59.4035   93.0029    0.0402 C.3     1  UNL1        0.0937
     11 C          58.4960   92.7950   -1.1359 C.3     1  UNL1        0.0219
     12 C          57.7684   93.9608   -1.7372 C.3     1  UNL1        0.0078
     13 C          57.9483   95.3345   -1.1623 C.3     1  UNL1        0.0219
     14 C          58.8559   95.5424    0.0138 C.3     1  UNL1        0.0937
     15 C          56.8609   93.7529   -2.9133 C.3     1  UNL1        0.0265
     16 C          55.5813   94.5283   -3.0196 C.ar    1  UNL1       -0.0220
     17 C          54.6406   94.5866   -1.8527 C.ar    1  UNL1       -0.0020
     18 C          53.3609   95.3620   -1.9590 C.ar    1  UNL1        0.0293
     19 C          53.0221   96.0791   -3.2322 C.ar    1  UNL1        0.1401
     20 F          51.7425   96.8545   -3.3385 F       1  UNL1       -0.2042
     21 C          53.9628   96.0208   -4.3990 C.ar    1  UNL1        0.0293
     22 C          55.2425   95.2454   -4.2927 C.ar    1  UNL1       -0.0020
     23 C          64.6396   95.6580   -1.1477 C.ar    1  UNL1       -0.0061
     24 C          63.9682   94.3783   -1.5499 C.ar    1  UNL1       -0.0029
     25 C          63.2948   93.5271   -0.5146 C.ar    1  UNL1       -0.0003
     26 C          63.2928   93.9555    0.9230 C.ar    1  UNL1        0.0001
     27 C          63.9642   95.2351    1.3252 C.ar    1  UNL1       -0.0003
     28 C          64.6376   96.0863    0.2898 C.ar    1  UNL1       -0.0029
     29 C          65.3130   96.5092   -2.1830 C.3     1  UNL1        0.0992
     30 C          61.5432   96.8224   -5.7455 C.3     1  UNL1        0.0186
     31 C          62.9844   96.5975   -5.3955 C.3     1  UNL1        0.0702
     32 C          63.4281   96.6658   -3.9643 C.3     1  UNL1        0.0882
     33 N          64.8693   96.4410   -3.6143 N.3     1  UNL1       -0.2666
     34 C          65.8668   96.1479   -4.6956 C.3     1  UNL1        0.0882
     35 C          65.4231   96.0796   -6.1268 C.3     1  UNL1        0.0702
     36 C          66.4205   95.7865   -7.2081 C.3     1  UNL1        0.0186
     37 N          63.9819   96.3045   -6.4767 N.3     1  UNL1       -0.2974
     38 H          63.6599   95.4624   -6.9540 H       1  UNL1        0.1232
@<TRIPOS>BOND
     1    31    30    1
     2    31    32    1
     3    32    33    1
     4    33    29    1
     5    29    23    1
     6    23    24   ar
     7    24    25   ar
     8    25    26   ar
     9    26     1    1
    10     1     2   ar
    11     2     3   ar
    12     3     4   ar
    13     4     5   ar
    14     5     6   ar
    15     6     7    1
    16     7     8    2
    17     7     9   am
    18     9    10    1
    19    10    11    1
    20    11    12    1
    21    12    15    1
    22    15    16    1
    23    16    17   ar
    24    17    18   ar
    25    18    19   ar
    26    19    20    1
    27    19    21   ar
    28    21    22   ar
    29    12    13    1
    30    13    14    1
    31    26    27   ar
    32    27    28   ar
    33    33    34    1
    34    34    35    1
    35    35    36    1
    36    35    37    1
    37    37    31    1
    38    28    23   ar
    39     6     1   ar
    40    14     9    1
    41    22    16   ar
    42    37    38    1
@<TRIPOS>MOLECULE
*****
 38 42 0 0 0
SMALL
GASTEIGER

@<TRIPOS>ATOM
      1 C          60.7482   89.1584    9.0880 C.ar    1  UNL1        0.0044
      2 C          60.3675   89.5906    7.7030 C.ar    1  UNL1        0.0001
      3 C          59.2991   88.8509    6.9536 C.ar    1  UNL1        0.0000
      4 C          58.6115   87.6791    7.5894 C.ar    1  UNL1        0.0001
      5 C          58.9923   87.2470    8.9744 C.ar    1  UNL1        0.0045
      6 C          60.0606   87.9866    9.7237 C.ar    1  UNL1        0.0536
      7 C          60.4414   87.5545   11.1088 C.2     1  UNL1        0.2490
      8 O          59.9172   88.3025   12.2985 O.2     1  UNL1       -0.2699
      9 N          61.3464   86.3743   11.3040 N.am    1  UNL1       -0.2761
     10 C          61.8706   85.6262   10.1142 C.3     1  UNL1        0.0937
     11 C          62.7756   84.4460   10.3095 C.3     1  UNL1        0.0219
     12 C          63.1564   84.0139   11.6945 C.3     1  UNL1        0.0078
     13 C          62.6321   84.7620   12.8843 C.3     1  UNL1        0.0219
     14 C          61.7271   85.9422   12.6890 C.3     1  UNL1        0.0937
     15 C          64.0614   82.8337   11.8898 C.3     1  UNL1        0.0265
     16 C          63.5829   81.4558   11.5400 C.ar    1  UNL1       -0.0220
     17 C          63.5946   80.9979   10.1117 C.ar    1  UNL1       -0.0020
     18 C          63.1162   79.6199    9.7619 C.ar    1  UNL1        0.0293
     19 C          62.6261   78.6998   10.8404 C.ar    1  UNL1        0.1401
     20 F          62.1477   77.3219   10.4906 F       1  UNL1       -0.2042
     21 C          62.6145   79.1577   12.2687 C.ar    1  UNL1        0.0293
     22 C          63.0929   80.5357   12.6185 C.ar    1  UNL1       -0.0020
     23 C          63.9534   91.3774   11.3360 C.ar    1  UNL1       -0.0061
     24 C          63.3775   90.1137   11.9031 C.ar    1  UNL1       -0.0029
     25 C          62.3091   89.3740   11.1538 C.ar    1  UNL1       -0.0003
     26 C          61.8166   89.8980    9.8373 C.ar    1  UNL1        0.0001
     27 C          62.3925   91.1617    9.2703 C.ar    1  UNL1       -0.0003
     28 C          63.4609   91.9013   10.0196 C.ar    1  UNL1       -0.0029
     29 C          65.0218   92.1170   12.0853 C.3     1  UNL1        0.0992
     30 C          66.7453   96.8158   10.6886 C.3     1  UNL1        0.0186
     31 C          66.8663   95.3214   10.6431 C.3     1  UNL1        0.0702
     32 C          65.8836   94.4664   11.3869 C.3     1  UNL1        0.0882
     33 N          66.0045   92.9720   11.3414 N.3     1  UNL1       -0.2666
     34 C          67.1082   92.3325   10.5521 C.3     1  UNL1        0.0882
     35 C          68.0909   93.1875    9.8083 C.3     1  UNL1        0.0702
     36 C          69.1946   92.5481    9.0190 C.3     1  UNL1        0.0186
     37 N          67.9699   94.6819    9.8538 N.3     1  UNL1       -0.2974
     38 H          67.8640   94.9982    8.8899 H       1  UNL1        0.1232
@<TRIPOS>BOND
     1    31    30    1
     2    31    32    1
     3    32    33    1
     4    33    29    1
     5    29    23    1
     6    23    24   ar
     7    24    25   ar
     8    25    26   ar
     9    26     1    1
    10     1     2   ar
    11     2     3   ar
    12     3     4   ar
    13     4     5   ar
    14     5     6   ar
    15     6     7    1
    16     7     8    2
    17     7     9   am
    18     9    10    1
    19    10    11    1
    20    11    12    1
    21    12    15    1
    22    15    16    1
    23    16    17   ar
    24    17    18   ar
    25    18    19   ar
    26    19    20    1
    27    19    21   ar
    28    21    22   ar
    29    12    13    1
    30    13    14    1
    31    26    27   ar
    32    27    28   ar
    33    33    34    1
    34    34    35    1
    35    35    36    1
    36    35    37    1
    37    37    31    1
    38    28    23   ar
    39     6     1   ar
    40    14     9    1
    41    22    16   ar
    42    37    38    1
