@<TRIPOS>MOLECULE
*****
 65 72 0 0 0
SMALL
GASTEIGER

@<TRIPOS>ATOM
      1 N          58.1782   96.0901   -3.6878 N.3     1  UNL1       -0.1862
      2 C          59.6243   96.3084   -4.0209 C.3     1  UNL1        0.1775
      3 C          60.6835   95.9935   -3.0064 C.2     1  UNL1        0.2452
      4 O          62.1297   96.2118   -3.3396 O.2     1  UNL1       -0.2732
      5 N          60.2964   95.4605   -1.6589 N.am    1  UNL1       -0.2541
      6 C          61.3556   95.1456   -0.6444 C.3     1  UNL1        0.1577
      7 C          60.9685   94.6126    0.7032 C.2     1  UNL1        0.2445
      8 O          62.0277   94.2978    1.7177 O.2     1  UNL1       -0.2731
      9 N          59.5223   94.3943    1.0364 N.am    1  UNL1       -0.2705
     10 C          58.4632   94.7091    0.0219 C.3     1  UNL1        0.1359
     11 C          58.8503   95.2422   -1.3258 C.3     1  UNL1        0.1908
     12 N          57.7912   95.5571   -2.3402 N.am    1  UNL1       -0.1863
     13 C          56.3450   95.3388   -2.0071 C.2     1  UNL1        0.3191
     14 O          55.9579   94.8057   -0.6595 O.2     1  UNL1       -0.2512
     15 N          55.2858   95.6536   -3.0215 N.am    1  UNL1       -0.2836
     16 H          55.5399   96.0035   -3.9060 H       1  UNL1        0.1513
     17 C          57.1191   96.4050   -4.7023 C.3     1  UNL1        0.1188
     18 C          56.3618   94.3682   -6.1263 C.2     1  UNL1       -0.0034
     19 C          57.0930   95.6728   -6.0112 C.2     1  UNL1       -0.0071
     20 C          62.8017   95.3639   -0.9775 C.3     1  UNL1        0.0556
     21 C          63.4358   94.6004   -2.1022 C.ar    1  UNL1       -0.0198
     22 C          64.4473   95.2684   -2.9857 C.ar    1  UNL1       -0.0011
     23 C          65.0814   94.5048   -4.1104 C.ar    1  UNL1        0.0363
     24 C          64.7040   93.0733   -4.3516 C.ar    1  UNL1        0.1337
     25 O          65.3381   92.3098   -5.4763 O.3     1  UNL1       -0.5055
     26 C          63.6924   92.4052   -3.4681 C.ar    1  UNL1        0.0363
     27 C          63.0583   93.1687   -2.3434 C.ar    1  UNL1       -0.0011
     28 H          65.9699   92.7271   -6.0282 H       1  UNL1        0.2922
     29 C          59.1353   93.8613    2.3839 C.3     1  UNL1        0.1217
     30 C          59.9826   92.8173    3.0492 C.ar    1  UNL1        0.0135
     31 C          61.4124   92.6354    2.6337 C.ar    1  UNL1       -0.0012
     32 C          62.2596   91.5915    3.2989 C.ar    1  UNL1       -0.0002
     33 C          61.6770   90.7296    4.3795 C.ar    1  UNL1        0.0016
     34 C          60.2472   90.9115    4.7949 C.ar    1  UNL1        0.0214
     35 C          59.4041   90.2156    5.8219 C.ar    1  UNL1        0.0722
     36 C          58.0357   90.8294    5.7914 C.ar    1  UNL1        0.0805
     37 N          58.0332   91.9046    4.7456 N.ar    1  UNL1       -0.3241
     38 C          56.8684   92.7761    4.3799 C.3     1  UNL1        0.1305
     39 C          59.4000   91.9554    4.1297 C.ar    1  UNL1        0.0577
     40 C          59.8508   89.1014    6.7215 C.2     1  UNL1        0.2510
     41 O          59.6762   87.6749    6.2919 O.2     1  UNL1       -0.2698
     42 N          60.4722   89.4138    8.0505 N.am    1  UNL1       -0.2791
     43 H          60.5868   90.3502    8.3323 H       1  UNL1        0.1552
     44 C          60.9190   88.2998    8.9500 C.ar    1  UNL1        0.0701
     45 C          61.5794   87.0852    8.3682 C.ar    1  UNL1        0.0191
     46 C          62.0263   85.9711    9.2677 C.ar    1  UNL1        0.0356
     47 C          61.8126   86.0716   10.7490 C.ar    1  UNL1        0.1319
     48 N          61.1521   87.2862   11.3308 N.ar    1  UNL1       -0.2279
     49 C          60.7053   88.4003   10.4313 C.ar    1  UNL1        0.1149
     50 N          62.2594   84.9576   11.6486 N.pl3   1  UNL1       -0.2904
     51 C          62.2361   85.1405   13.1372 C.3     1  UNL1        0.1095
     52 C          62.6829   84.0265   14.0369 C.3     1  UNL1        0.0939
     53 N          63.1529   82.7295   13.4479 N.3     1  UNL1       -0.2698
     54 C          63.1762   82.5465   11.9593 C.3     1  UNL1        0.0939
     55 C          62.7294   83.6606   11.0596 C.3     1  UNL1        0.1095
     56 C          63.5997   81.6154   14.3475 C.3     1  UNL1        0.0722
     57 C          63.0252   80.2400   14.1798 C.3     1  UNL1        0.0173
     58 C          61.6051   80.0703   13.7275 C.3     1  UNL1        0.0015
     59 C          53.8397   95.4354   -2.6884 C.3     1  UNL1        0.1177
     60 C          52.7749   95.8595   -3.6561 C.ar    1  UNL1       -0.0025
     61 C          53.1248   96.1138   -5.0923 C.ar    1  UNL1       -0.0026
     62 C          52.0600   96.5379   -6.0599 C.ar    1  UNL1       -0.0003
     63 C          50.6453   96.7076   -5.5913 C.ar    1  UNL1       -0.0000
     64 C          50.2953   96.4533   -4.1550 C.ar    1  UNL1       -0.0003
     65 C          51.3601   96.0292   -3.1874 C.ar    1  UNL1       -0.0026
@<TRIPOS>BOND
     1    18    19    2
     2    19    17    1
     3    17     1    1
     4     1     2    1
     5     2     3    1
     6     3     4    2
     7     3     5   am
     8     5     6    1
     9     6    20    1
    10    20    21    1
    11    21    22   ar
    12    22    23   ar
    13    23    24   ar
    14    24    25    1
    15    24    26   ar
    16    26    27   ar
    17     6     7    1
    18     7     8    2
    19     7     9   am
    20     9    29    1
    21    29    30    1
    22    30    31   ar
    23    31    32   ar
    24    32    33   ar
    25    33    34   ar
    26    34    35   ar
    27    35    40    1
    28    40    41    2
    29    40    42   am
    30    42    44    1
    31    44    45   ar
    32    45    46   ar
    33    46    47   ar
    34    47    50    1
    35    50    51    1
    36    51    52    1
    37    52    53    1
    38    53    56    1
    39    56    57    1
    40    57    58    1
    41    53    54    1
    42    54    55    1
    43    47    48   ar
    44    48    49   ar
    45    35    36   ar
    46    36    37   ar
    47    37    38    1
    48    37    39   ar
    49     9    10    1
    50    10    11    1
    51    11    12    1
    52    12    13   am
    53    13    14    2
    54    13    15   am
    55    15    59    1
    56    59    60    1
    57    60    61   ar
    58    61    62   ar
    59    62    63   ar
    60    63    64   ar
    61    64    65   ar
    62    12     1    1
    63    65    60   ar
    64    11     5    1
    65    27    21   ar
    66    39    30   ar
    67    39    34   ar
    68    49    44   ar
    69    55    50    1
    70    25    28    1
    71    42    43    1
    72    15    16    1
@<TRIPOS>MOLECULE
*****
 65 72 0 0 0
SMALL
GASTEIGER

@<TRIPOS>ATOM
      1 N          62.1260   95.4390   -3.4806 N.3     1  UNL1       -0.1862
      2 C          61.0003   95.1172   -4.4181 C.3     1  UNL1        0.1775
      3 C          59.7033   94.5897   -3.8798 C.2     1  UNL1        0.2452
      4 O          58.5775   94.2679   -4.8174 O.2     1  UNL1       -0.2732
      5 N          59.5322   94.3841   -2.4039 N.am    1  UNL1       -0.2541
      6 C          58.2353   93.8567   -1.8655 C.3     1  UNL1        0.1577
      7 C          58.0641   93.6510   -0.3896 C.2     1  UNL1        0.2445
      8 O          56.7672   93.1236    0.1488 O.2     1  UNL1       -0.2731
      9 N          59.1899   93.9728    0.5480 N.am    1  UNL1       -0.2705
     10 C          60.4869   94.5002    0.0097 C.3     1  UNL1        0.1359
     11 C          60.6580   94.7059   -1.4663 C.3     1  UNL1        0.1908
     12 N          61.9549   95.2333   -2.0047 N.am    1  UNL1       -0.1863
     13 C          63.0807   95.5551   -1.0670 C.2     1  UNL1        0.3191
     14 O          62.9095   95.3495    0.4089 O.2     1  UNL1       -0.2512
     15 N          64.3776   96.0825   -1.6054 N.am    1  UNL1       -0.2836
     16 H          64.4899   96.2175   -2.5741 H       1  UNL1        0.1513
     17 C          63.4229   95.9664   -4.0189 C.3     1  UNL1        0.1188
     18 C          64.5152   94.2329   -5.6164 C.2     1  UNL1       -0.0034
     19 C          63.8801   95.5733   -5.3924 C.2     1  UNL1       -0.0071
     20 C          57.1095   93.5349   -2.8031 C.3     1  UNL1        0.0556
     21 C          55.8562   94.3587   -2.7809 C.ar    1  UNL1       -0.0198
     22 C          55.7252   95.5493   -3.6837 C.ar    1  UNL1       -0.0011
     23 C          54.4719   96.3732   -3.6615 C.ar    1  UNL1        0.0363
     24 C          53.3496   96.0064   -2.7364 C.ar    1  UNL1        0.1337
     25 O          52.0963   96.8303   -2.7142 O.3     1  UNL1       -0.5055
     26 C          53.4806   94.8157   -1.8335 C.ar    1  UNL1        0.0363
     27 C          54.7339   93.9919   -1.8557 C.ar    1  UNL1       -0.0011
     28 H          52.0145   97.5740   -3.2782 H       1  UNL1        0.2922
     29 C          59.0188   93.7672    2.0240 C.3     1  UNL1        0.1217
     30 C          59.9157   92.8144    2.7575 C.ar    1  UNL1        0.0135
     31 C          61.3726   92.7370    2.4092 C.ar    1  UNL1       -0.0012
     32 C          62.2695   91.7843    3.1426 C.ar    1  UNL1       -0.0002
     33 C          61.7094   90.9090    4.2243 C.ar    1  UNL1        0.0016
     34 C          60.2524   90.9864    4.5726 C.ar    1  UNL1        0.0214
     35 C          59.4220   90.2539    5.5845 C.ar    1  UNL1        0.0722
     36 C          58.0119   90.7539    5.4764 C.ar    1  UNL1        0.0805
     37 N          57.9709   91.7954    4.3977 N.ar    1  UNL1       -0.3241
     38 C          56.7581   92.5591    3.9553 C.3     1  UNL1        0.1305
     39 C          59.3556   91.9391    3.8392 C.ar    1  UNL1        0.0577
     40 C          59.9151   89.2054    6.5372 C.2     1  UNL1        0.2510
     41 O          60.0078   87.7749    6.0957 O.2     1  UNL1       -0.2698
     42 N          60.3156   89.5876    7.9313 N.am    1  UNL1       -0.2791
     43 H          60.2548   90.5265    8.2210 H       1  UNL1        0.1552
     44 C          60.8087   88.5392    8.8841 C.ar    1  UNL1        0.0701
     45 C          61.5584   88.9415   10.1194 C.ar    1  UNL1        0.0191
     46 C          62.0515   87.8932   11.0722 C.ar    1  UNL1        0.0356
     47 C          61.7950   86.4426   10.7896 C.ar    1  UNL1        0.1319
     48 N          61.0453   86.0403    9.5543 N.ar    1  UNL1       -0.2279
     49 C          60.5522   87.0886    8.6015 C.ar    1  UNL1        0.1149
     50 N          62.2881   85.3942   11.7424 N.pl3   1  UNL1       -0.2904
     51 C          62.4170   83.9701   11.2894 C.3     1  UNL1        0.1095
     52 C          62.9101   82.9216   12.2420 C.3     1  UNL1        0.0939
     53 N          63.2744   83.2973   13.6478 N.3     1  UNL1       -0.2698
     54 C          63.1456   84.7214   14.1008 C.3     1  UNL1        0.0939
     55 C          62.6524   85.7699   13.1481 C.3     1  UNL1        0.1095
     56 C          63.7675   82.2490   14.6005 C.3     1  UNL1        0.0722
     57 C          63.0564   80.9320   14.7000 C.3     1  UNL1        0.0173
     58 C          61.6609   80.7910   14.1681 C.3     1  UNL1        0.0015
     59 C          65.5034   96.4043   -0.6678 C.3     1  UNL1        0.1177
     60 C          65.4759   95.8909    0.7413 C.ar    1  UNL1       -0.0025
     61 C          65.4332   96.8545    1.8900 C.ar    1  UNL1       -0.0026
     62 C          65.4057   96.3410    3.2991 C.ar    1  UNL1       -0.0003
     63 C          65.4210   94.8639    3.5595 C.ar    1  UNL1       -0.0000
     64 C          65.4637   93.9002    2.4108 C.ar    1  UNL1       -0.0003
     65 C          65.4912   94.4137    1.0017 C.ar    1  UNL1       -0.0026
@<TRIPOS>BOND
     1    18    19    2
     2    19    17    1
     3    17     1    1
     4     1     2    1
     5     2     3    1
     6     3     4    2
     7     3     5   am
     8     5     6    1
     9     6    20    1
    10    20    21    1
    11    21    22   ar
    12    22    23   ar
    13    23    24   ar
    14    24    25    1
    15    24    26   ar
    16    26    27   ar
    17     6     7    1
    18     7     8    2
    19     7     9   am
    20     9    29    1
    21    29    30    1
    22    30    31   ar
    23    31    32   ar
    24    32    33   ar
    25    33    34   ar
    26    34    35   ar
    27    35    40    1
    28    40    41    2
    29    40    42   am
    30    42    44    1
    31    44    45   ar
    32    45    46   ar
    33    46    47   ar
    34    47    50    1
    35    50    51    1
    36    51    52    1
    37    52    53    1
    38    53    56    1
    39    56    57    1
    40    57    58    1
    41    53    54    1
    42    54    55    1
    43    47    48   ar
    44    48    49   ar
    45    35    36   ar
    46    36    37   ar
    47    37    38    1
    48    37    39   ar
    49     9    10    1
    50    10    11    1
    51    11    12    1
    52    12    13   am
    53    13    14    2
    54    13    15   am
    55    15    59    1
    56    59    60    1
    57    60    61   ar
    58    61    62   ar
    59    62    63   ar
    60    63    64   ar
    61    64    65   ar
    62    12     1    1
    63    65    60   ar
    64    11     5    1
    65    27    21   ar
    66    39    30   ar
    67    39    34   ar
    68    49    44   ar
    69    55    50    1
    70    25    28    1
    71    42    43    1
    72    15    16    1
@<TRIPOS>MOLECULE
*****
 65 72 0 0 0
SMALL
GASTEIGER

@<TRIPOS>ATOM
      1 N          61.9459   95.1308   -4.0641 N.3     1  UNL1       -0.1862
      2 C          60.7849   94.9831   -5.0022 C.3     1  UNL1        0.1775
      3 C          59.4318   94.6157   -4.4690 C.2     1  UNL1        0.2452
      4 O          58.2707   94.4680   -5.4072 O.2     1  UNL1       -0.2732
      5 N          59.2398   94.3961   -2.9977 N.am    1  UNL1       -0.2541
      6 C          57.8868   94.0287   -2.4644 C.3     1  UNL1        0.1577
      7 C          57.6948   93.8090   -0.9931 C.2     1  UNL1        0.2445
      8 O          56.3418   93.4417   -0.4599 O.2     1  UNL1       -0.2731
      9 N          58.8559   93.9567   -0.0549 N.am    1  UNL1       -0.2705
     10 C          60.2089   94.3241   -0.5881 C.3     1  UNL1        0.1359
     11 C          60.4009   94.5438   -2.0595 C.3     1  UNL1        0.1908
     12 N          61.7539   94.9111   -2.5928 N.am    1  UNL1       -0.1863
     13 C          62.9150   95.0588   -1.6546 C.2     1  UNL1        0.3191
     14 O          62.7230   94.8391   -0.1832 O.2     1  UNL1       -0.2512
     15 N          64.2681   95.4261   -2.1878 N.am    1  UNL1       -0.2836
     16 H          64.3941   95.5703   -3.1535 H       1  UNL1        0.1513
     17 C          63.2990   95.4981   -4.5973 C.3     1  UNL1        0.1188
     18 C          64.6336   94.7164   -6.6848 C.2     1  UNL1       -0.0034
     19 C          63.5359   95.5390   -6.0779 C.2     1  UNL1       -0.0071
     20 C          56.7257   93.8810   -3.4025 C.3     1  UNL1        0.0556
     21 C          56.1488   92.5233   -3.6740 C.ar    1  UNL1       -0.0198
     22 C          55.7326   92.1498   -5.0658 C.ar    1  UNL1       -0.0011
     23 C          55.1557   90.7920   -5.3373 C.ar    1  UNL1        0.0363
     24 C          54.9950   89.8078   -4.2169 C.ar    1  UNL1        0.1337
     25 O          54.4181   88.4500   -4.4883 O.3     1  UNL1       -0.5055
     26 C          55.4112   90.1812   -2.8249 C.ar    1  UNL1        0.0363
     27 C          55.9881   91.5390   -2.5535 C.ar    1  UNL1       -0.0011
     28 H          54.1581   88.2167   -5.3578 H       1  UNL1        0.2922
     29 C          58.6639   93.7371    1.4164 C.3     1  UNL1        0.1217
     30 C          59.6808   92.9586    2.1975 C.ar    1  UNL1        0.0135
     31 C          61.1148   92.9452    1.7576 C.ar    1  UNL1       -0.0012
     32 C          62.1316   92.1668    2.5386 C.ar    1  UNL1       -0.0002
     33 C          61.7145   91.4019    3.7596 C.ar    1  UNL1        0.0016
     34 C          60.2806   91.4154    4.1996 C.ar    1  UNL1        0.0214
     35 C          59.5784   90.7622    5.3529 C.ar    1  UNL1        0.0722
     36 C          58.1276   91.1369    5.2847 C.ar    1  UNL1        0.0805
     37 N          57.9331   92.0216    4.0892 N.ar    1  UNL1       -0.3241
     38 C          56.6358   92.6278    3.6427 C.3     1  UNL1        0.1305
     39 C          59.2637   92.1937    3.4185 C.ar    1  UNL1        0.0577
     40 C          60.2153   89.8878    6.3922 C.2     1  UNL1        0.2510
     41 O          61.5162   90.2937    7.0191 O.2     1  UNL1       -0.2698
     42 N          59.5513   88.6075    6.8044 N.am    1  UNL1       -0.2791
     43 H          58.6976   88.3411    6.3930 H       1  UNL1        0.1552
     44 C          60.1881   87.7331    7.8436 C.ar    1  UNL1        0.0701
     45 C          60.3426   88.2308    9.2502 C.ar    1  UNL1        0.0191
     46 C          60.9794   87.3564   10.2894 C.ar    1  UNL1        0.0356
     47 C          61.4617   85.9844    9.9220 C.ar    1  UNL1        0.1319
     48 N          61.3073   85.4868    8.5155 N.ar    1  UNL1       -0.2279
     49 C          60.6705   86.3611    7.4762 C.ar    1  UNL1        0.1149
     50 N          62.0985   85.1100   10.9612 N.pl3   1  UNL1       -0.2904
     51 C          62.8652   83.8892   10.5467 C.3     1  UNL1        0.1095
     52 C          63.5020   83.0147   11.5858 C.3     1  UNL1        0.0939
     53 N          63.3723   83.3611   13.0394 N.3     1  UNL1       -0.2698
     54 C          62.6057   84.5819   13.4540 C.3     1  UNL1        0.0939
     55 C          61.9688   85.4564   12.4148 C.3     1  UNL1        0.1095
     56 C          64.0091   82.4867   14.0786 C.3     1  UNL1        0.0722
     57 C          63.3366   81.2148   14.5029 C.3     1  UNL1        0.0173
     58 C          62.8172   80.2599   13.4691 C.3     1  UNL1        0.0015
     59 C          65.4291   95.5738   -1.2497 C.3     1  UNL1        0.1177
     60 C          65.2033   95.5484    0.2330 C.ar    1  UNL1       -0.0025
     61 C          65.0009   96.8315    0.9830 C.ar    1  UNL1       -0.0026
     62 C          64.7752   96.8060    2.4657 C.ar    1  UNL1       -0.0003
     63 C          64.7518   95.4974    3.1984 C.ar    1  UNL1       -0.0000
     64 C          64.9542   94.2141    2.4484 C.ar    1  UNL1       -0.0003
     65 C          65.1799   94.2396    0.9657 C.ar    1  UNL1       -0.0026
@<TRIPOS>BOND
     1    18    19    2
     2    19    17    1
     3    17     1    1
     4     1     2    1
     5     2     3    1
     6     3     4    2
     7     3     5   am
     8     5     6    1
     9     6    20    1
    10    20    21    1
    11    21    22   ar
    12    22    23   ar
    13    23    24   ar
    14    24    25    1
    15    24    26   ar
    16    26    27   ar
    17     6     7    1
    18     7     8    2
    19     7     9   am
    20     9    29    1
    21    29    30    1
    22    30    31   ar
    23    31    32   ar
    24    32    33   ar
    25    33    34   ar
    26    34    35   ar
    27    35    40    1
    28    40    41    2
    29    40    42   am
    30    42    44    1
    31    44    45   ar
    32    45    46   ar
    33    46    47   ar
    34    47    50    1
    35    50    51    1
    36    51    52    1
    37    52    53    1
    38    53    56    1
    39    56    57    1
    40    57    58    1
    41    53    54    1
    42    54    55    1
    43    47    48   ar
    44    48    49   ar
    45    35    36   ar
    46    36    37   ar
    47    37    38    1
    48    37    39   ar
    49     9    10    1
    50    10    11    1
    51    11    12    1
    52    12    13   am
    53    13    14    2
    54    13    15   am
    55    15    59    1
    56    59    60    1
    57    60    61   ar
    58    61    62   ar
    59    62    63   ar
    60    63    64   ar
    61    64    65   ar
    62    12     1    1
    63    65    60   ar
    64    11     5    1
    65    27    21   ar
    66    39    30   ar
    67    39    34   ar
    68    49    44   ar
    69    55    50    1
    70    25    28    1
    71    42    43    1
    72    15    16    1
@<TRIPOS>MOLECULE
*****
 65 72 0 0 0
SMALL
GASTEIGER

@<TRIPOS>ATOM
      1 N          59.4035   95.8329   -3.8084 N.3     1  UNL1       -0.1862
      2 C          60.8181   96.3290   -3.7574 C.3     1  UNL1        0.1775
      3 C          61.6283   96.1577   -2.5068 C.2     1  UNL1        0.2452
      4 O          63.0431   96.6538   -2.4559 O.2     1  UNL1       -0.2732
      5 N          61.0240   95.4903   -1.3071 N.am    1  UNL1       -0.2541
      6 C          61.8342   95.3190   -0.0565 C.3     1  UNL1        0.1577
      7 C          61.2299   94.6516    1.1432 C.2     1  UNL1        0.2445
      8 O          62.0402   94.4803    2.3939 O.2     1  UNL1       -0.2731
      9 N          59.8152   94.1554    1.0923 N.am    1  UNL1       -0.2705
     10 C          59.0049   94.3267   -0.1584 C.3     1  UNL1        0.1359
     11 C          59.6094   94.9942   -1.3581 C.3     1  UNL1        0.1908
     12 N          58.7991   95.1655   -2.6087 N.am    1  UNL1       -0.1863
     13 C          57.3844   94.6693   -2.6597 C.2     1  UNL1        0.3191
     14 O          56.7800   94.0019   -1.4600 O.2     1  UNL1       -0.2512
     15 N          56.5741   94.8406   -3.9103 N.am    1  UNL1       -0.2836
     16 H          56.9708   95.2786   -4.6977 H       1  UNL1        0.1513
     17 C          58.5932   96.0041   -5.0591 C.3     1  UNL1        0.1188
     18 C          58.6399   93.6302   -6.1137 C.2     1  UNL1       -0.0034
     19 C          58.8382   95.1117   -6.2395 C.2     1  UNL1       -0.0071
     20 C          63.2489   95.8151   -0.0055 C.3     1  UNL1        0.0556
     21 C          63.9996   95.8086    1.2931 C.ar    1  UNL1       -0.0198
     22 C          63.7102   96.8511    2.3320 C.ar    1  UNL1       -0.0011
     23 C          64.4610   96.8446    3.6306 C.ar    1  UNL1        0.0363
     24 C          65.5011   95.7956    3.8903 C.ar    1  UNL1        0.1337
     25 O          66.2519   95.7890    5.1888 O.3     1  UNL1       -0.5055
     26 C          65.7906   94.7530    2.8513 C.ar    1  UNL1        0.0363
     27 C          65.0399   94.7595    1.5528 C.ar    1  UNL1       -0.0011
     28 H          66.0711   96.4403    5.8378 H       1  UNL1        0.2922
     29 C          59.2108   93.4880    2.2920 C.3     1  UNL1        0.1217
     30 C          60.0009   92.4721    3.0625 C.ar    1  UNL1        0.0135
     31 C          61.4434   92.2329    2.7282 C.ar    1  UNL1       -0.0012
     32 C          62.2335   91.2170    3.4987 C.ar    1  UNL1       -0.0002
     33 C          61.5810   90.4403    4.6036 C.ar    1  UNL1        0.0016
     34 C          60.1384   90.6795    4.9380 C.ar    1  UNL1        0.0214
     35 C          59.2321   90.0704    5.9664 C.ar    1  UNL1        0.0722
     36 C          57.8820   90.7098    5.8314 C.ar    1  UNL1        0.0805
     37 N          57.9538   91.7141    4.7197 N.ar    1  UNL1       -0.3241
     38 C          56.8287   92.5844    4.2436 C.3     1  UNL1        0.1305
     39 C          59.3484   91.6954    4.1674 C.ar    1  UNL1        0.0577
     40 C          59.6098   89.0082    6.9560 C.2     1  UNL1        0.2510
     41 O          58.8571   87.7111    6.9879 O.2     1  UNL1       -0.2698
     42 N          60.7400   89.2432    7.9138 N.am    1  UNL1       -0.2791
     43 H          61.2340   90.0945    7.8929 H       1  UNL1        0.1552
     44 C          61.1177   88.1812    8.9034 C.ar    1  UNL1        0.0701
     45 C          61.8103   86.9346    8.4381 C.ar    1  UNL1        0.0191
     46 C          62.1880   85.8725    9.4276 C.ar    1  UNL1        0.0356
     47 C          61.8731   86.0569   10.8825 C.ar    1  UNL1        0.1319
     48 N          61.1805   87.3034   11.3479 N.ar    1  UNL1       -0.2279
     49 C          60.8028   88.3656   10.3583 C.ar    1  UNL1        0.1149
     50 N          62.2507   84.9949   11.8722 N.pl3   1  UNL1       -0.2904
     51 C          62.8503   83.7050   11.3959 C.3     1  UNL1        0.1095
     52 C          63.2280   82.6429   12.3855 C.3     1  UNL1        0.0939
     53 N          63.0061   82.8706   13.8514 N.3     1  UNL1       -0.2698
     54 C          62.4065   84.1604   14.3277 C.3     1  UNL1        0.0939
     55 C          62.0288   85.2226   13.3381 C.3     1  UNL1        0.1095
     56 C          63.3838   81.8086   14.8410 C.3     1  UNL1        0.0722
     57 C          63.1949   80.3610   14.4962 C.3     1  UNL1        0.0173
     58 C          61.8578   79.8704   14.0254 C.3     1  UNL1        0.0015
     59 C          55.1595   94.3445   -3.9613 C.3     1  UNL1        0.1177
     60 C          54.0503   95.1815   -3.3965 C.ar    1  UNL1       -0.0025
     61 C          53.1559   95.9602   -4.3150 C.ar    1  UNL1       -0.0026
     62 C          52.0468   96.7973   -3.7502 C.ar    1  UNL1       -0.0003
     63 C          51.8320   96.8557   -2.2668 C.ar    1  UNL1       -0.0000
     64 C          52.7264   96.0770   -1.3482 C.ar    1  UNL1       -0.0003
     65 C          53.8355   95.2399   -1.9130 C.ar    1  UNL1       -0.0026
@<TRIPOS>BOND
     1    18    19    2
     2    19    17    1
     3    17     1    1
     4     1     2    1
     5     2     3    1
     6     3     4    2
     7     3     5   am
     8     5     6    1
     9     6    20    1
    10    20    21    1
    11    21    22   ar
    12    22    23   ar
    13    23    24   ar
    14    24    25    1
    15    24    26   ar
    16    26    27   ar
    17     6     7    1
    18     7     8    2
    19     7     9   am
    20     9    29    1
    21    29    30    1
    22    30    31   ar
    23    31    32   ar
    24    32    33   ar
    25    33    34   ar
    26    34    35   ar
    27    35    40    1
    28    40    41    2
    29    40    42   am
    30    42    44    1
    31    44    45   ar
    32    45    46   ar
    33    46    47   ar
    34    47    50    1
    35    50    51    1
    36    51    52    1
    37    52    53    1
    38    53    56    1
    39    56    57    1
    40    57    58    1
    41    53    54    1
    42    54    55    1
    43    47    48   ar
    44    48    49   ar
    45    35    36   ar
    46    36    37   ar
    47    37    38    1
    48    37    39   ar
    49     9    10    1
    50    10    11    1
    51    11    12    1
    52    12    13   am
    53    13    14    2
    54    13    15   am
    55    15    59    1
    56    59    60    1
    57    60    61   ar
    58    61    62   ar
    59    62    63   ar
    60    63    64   ar
    61    64    65   ar
    62    12     1    1
    63    65    60   ar
    64    11     5    1
    65    27    21   ar
    66    39    30   ar
    67    39    34   ar
    68    49    44   ar
    69    55    50    1
    70    25    28    1
    71    42    43    1
    72    15    16    1
@<TRIPOS>MOLECULE
*****
 65 72 0 0 0
SMALL
GASTEIGER

@<TRIPOS>ATOM
      1 N          65.7703   89.9197   13.9781 N.3     1  UNL1       -0.1862
      2 C          66.2028   88.7437   14.8027 C.3     1  UNL1        0.1775
      3 C          65.4008   87.4763   14.7800 C.2     1  UNL1        0.2452
      4 O          65.8333   86.3003   15.6046 O.2     1  UNL1       -0.2732
      5 N          64.1663   87.3849   13.9329 N.am    1  UNL1       -0.2541
      6 C          63.3643   86.1175   13.9103 C.3     1  UNL1        0.1577
      7 C          62.1299   86.0261   13.0631 C.2     1  UNL1        0.2445
      8 O          61.3279   84.7587   13.0405 O.2     1  UNL1       -0.2731
      9 N          61.6973   87.2022   12.2386 N.am    1  UNL1       -0.2705
     10 C          62.4993   88.4696   12.2612 C.3     1  UNL1        0.1359
     11 C          63.7338   88.5609   13.1084 C.3     1  UNL1        0.1908
     12 N          64.5358   89.8283   13.1310 N.am    1  UNL1       -0.1863
     13 C          64.1033   91.0044   12.3064 C.2     1  UNL1        0.3191
     14 O          62.8688   90.9130   11.4592 O.2     1  UNL1       -0.2512
     15 N          64.9052   92.2718   12.3290 N.am    1  UNL1       -0.2836
     16 H          65.7155   92.3318   12.8850 H       1  UNL1        0.1513
     17 C          66.5722   91.1871   14.0007 C.3     1  UNL1        0.1188
     18 C          67.2385   92.7679   15.9520 C.2     1  UNL1       -0.0034
     19 C          67.4474   91.5000   15.1781 C.2     1  UNL1       -0.0071
     20 C          63.7968   84.9415   14.7348 C.3     1  UNL1        0.0556
     21 C          63.4737   83.5485   14.2819 C.ar    1  UNL1       -0.0198
     22 C          62.3235   82.8077   14.8969 C.ar    1  UNL1       -0.0011
     23 C          62.0004   81.4147   14.4439 C.ar    1  UNL1        0.0363
     24 C          62.8275   80.7625   13.3760 C.ar    1  UNL1        0.1337
     25 O          62.5044   79.3695   12.9231 O.3     1  UNL1       -0.5055
     26 C          63.9778   81.5033   12.7610 C.ar    1  UNL1        0.0363
     27 C          64.3009   82.8963   13.2139 C.ar    1  UNL1       -0.0011
     28 H          61.7859   78.9067   13.3073 H       1  UNL1        0.2922
     29 C          60.4629   87.1108   11.3914 C.3     1  UNL1        0.1217
     30 C          60.5723   87.1766    9.8968 C.ar    1  UNL1        0.0135
     31 C          61.0345   85.9763    9.1251 C.ar    1  UNL1       -0.0012
     32 C          61.1440   86.0420    7.6306 C.ar    1  UNL1       -0.0002
     33 C          60.7912   87.3081    6.9078 C.ar    1  UNL1        0.0016
     34 C          60.3290   88.5085    7.6795 C.ar    1  UNL1        0.0214
     35 C          59.9152   89.8831    7.2445 C.ar    1  UNL1        0.0722
     36 C          59.5501   90.6669    8.4702 C.ar    1  UNL1        0.0805
     37 N          59.7382   89.7767    9.6627 N.ar    1  UNL1       -0.3241
     38 C          59.4887   90.1541   11.0928 C.3     1  UNL1        0.1305
     39 C          60.2195   88.4427    9.1740 C.ar    1  UNL1        0.0577
     40 C          59.8739   90.3857    5.8317 C.2     1  UNL1        0.2510
     41 O          58.6964   90.0705    4.9577 O.2     1  UNL1       -0.2698
     42 N          61.0102   91.2035    5.2931 N.am    1  UNL1       -0.2791
     43 H          61.7830   91.4104    5.8668 H       1  UNL1        0.1552
     44 C          60.9689   91.7062    3.8805 C.ar    1  UNL1        0.0701
     45 C          62.1488   91.5018    2.9770 C.ar    1  UNL1        0.0191
     46 C          62.1076   92.0044    1.5644 C.ar    1  UNL1        0.0356
     47 C          60.8866   92.7114    1.0551 C.ar    1  UNL1        0.1319
     48 N          59.7068   92.9157    1.9586 N.ar    1  UNL1       -0.2279
     49 C          59.7479   92.4131    3.3713 C.ar    1  UNL1        0.1149
     50 N          60.8453   93.2140   -0.3575 N.pl3   1  UNL1       -0.2904
     51 C          62.0182   93.9587   -0.9232 C.3     1  UNL1        0.1095
     52 C          61.9770   94.4614   -2.3358 C.3     1  UNL1        0.0939
     53 N          60.7630   94.2194   -3.1829 N.3     1  UNL1       -0.2698
     54 C          59.5901   93.4747   -2.6173 C.3     1  UNL1        0.0939
     55 C          59.6313   92.9720   -1.2046 C.3     1  UNL1        0.1095
     56 C          60.7218   94.7220   -4.5956 C.3     1  UNL1        0.0722
     57 C          61.9997   94.9878   -5.3346 C.3     1  UNL1        0.0173
     58 C          62.1070   94.6512   -6.7925 C.3     1  UNL1        0.0015
     59 C          64.4727   93.4478   11.5045 C.3     1  UNL1        0.1177
     60 C          65.4586   94.1406   10.6111 C.ar    1  UNL1       -0.0025
     61 C          66.5764   93.3629    9.9821 C.ar    1  UNL1       -0.0026
     62 C          67.5622   94.0557    9.0888 C.ar    1  UNL1       -0.0003
     63 C          67.4303   95.5263    8.8244 C.ar    1  UNL1       -0.0000
     64 C          66.3125   96.3041    9.4533 C.ar    1  UNL1       -0.0003
     65 C          65.3266   95.6113   10.3467 C.ar    1  UNL1       -0.0026
@<TRIPOS>BOND
     1    18    19    2
     2    19    17    1
     3    17     1    1
     4     1     2    1
     5     2     3    1
     6     3     4    2
     7     3     5   am
     8     5     6    1
     9     6    20    1
    10    20    21    1
    11    21    22   ar
    12    22    23   ar
    13    23    24   ar
    14    24    25    1
    15    24    26   ar
    16    26    27   ar
    17     6     7    1
    18     7     8    2
    19     7     9   am
    20     9    29    1
    21    29    30    1
    22    30    31   ar
    23    31    32   ar
    24    32    33   ar
    25    33    34   ar
    26    34    35   ar
    27    35    40    1
    28    40    41    2
    29    40    42   am
    30    42    44    1
    31    44    45   ar
    32    45    46   ar
    33    46    47   ar
    34    47    50    1
    35    50    51    1
    36    51    52    1
    37    52    53    1
    38    53    56    1
    39    56    57    1
    40    57    58    1
    41    53    54    1
    42    54    55    1
    43    47    48   ar
    44    48    49   ar
    45    35    36   ar
    46    36    37   ar
    47    37    38    1
    48    37    39   ar
    49     9    10    1
    50    10    11    1
    51    11    12    1
    52    12    13   am
    53    13    14    2
    54    13    15   am
    55    15    59    1
    56    59    60    1
    57    60    61   ar
    58    61    62   ar
    59    62    63   ar
    60    63    64   ar
    61    64    65   ar
    62    12     1    1
    63    65    60   ar
    64    11     5    1
    65    27    21   ar
    66    39    30   ar
    67    39    34   ar
    68    49    44   ar
    69    55    50    1
    70    25    28    1
    71    42    43    1
    72    15    16    1
