@<TRIPOS>MOLECULE
*****
 25 26 0 0 0
SMALL
GASTEIGER

@<TRIPOS>ATOM
      1 C          64.6378   92.0175   11.0226 C.ar    1  UNL1        0.0010
      2 C          63.6142   91.6068   10.0059 C.ar    1  UNL1        0.0032
      3 C          62.4703   90.7238   10.4079 C.ar    1  UNL1        0.0376
      4 C          62.3498   90.2515   11.8265 C.ar    1  UNL1        0.1481
      5 C          63.3734   90.6622   12.8432 C.ar    1  UNL1        0.1023
      6 C          64.5174   91.5453   12.4412 C.ar    1  UNL1        0.0133
      7 C          66.7098   96.7584   10.5415 C.3     1  UNL1        0.0521
      8 C          66.8178   95.2710   10.3800 C.ar    1  UNL1        0.0594
      9 C          65.6738   94.3880   10.7820 C.ar    1  UNL1        0.0147
     10 C          65.7818   92.9006   10.6206 C.ar    1  UNL1        0.0027
     11 C          67.0337   92.2962   10.0572 C.ar    1  UNL1        0.0207
     12 C          68.1776   93.1793    9.6552 C.ar    1  UNL1        0.0984
     13 N          68.0697   94.6667    9.8166 N.ar    1  UNL1       -0.2481
     14 C          63.2530   90.1900   14.2618 C.1     1  UNL1        0.1035
     15 N          63.1326   89.7178   15.6804 N.1     1  UNL1       -0.1907
     16 O          61.2058   89.3685   12.2285 O.3     1  UNL1       -0.4733
     17 C          60.6165   88.4075   11.2390 C.3     1  UNL1        0.2207
     18 C          61.4096   87.2179   10.7851 C.3     1  UNL1        0.0951
     19 N          61.5350   86.0164   11.6743 N.3     1  UNL1       -0.3192
     20 H          62.1041   85.3082   11.2107 H       1  UNL1        0.1189
     21 H          60.6079   85.6363   11.8650 H       1  UNL1        0.1189
     22 C          62.0772   87.2298    9.4419 C.3     1  UNL1        0.0193
     23 C          61.8529   86.0984    8.4828 C.3     1  UNL1        0.0014
     24 C          62.9607   85.1293    8.1939 C.3     1  UNL1        0.0000
     25 C          60.5208   85.9362    7.8127 C.3     1  UNL1        0.0000
@<TRIPOS>BOND
     1     7     8    1
     2     8     9   ar
     3     9    10   ar
     4    10     1    1
     5     1     2   ar
     6     2     3   ar
     7     3     4   ar
     8     4    16    1
     9    16    17    1
    10    17    18    1
    11    18    19    1
    12    18    22    1
    13    22    23    1
    14    23    24    1
    15    23    25    1
    16     4     5   ar
    17     5    14    1
    18    14    15    3
    19     5     6   ar
    20    10    11   ar
    21    11    12   ar
    22    12    13   ar
    23    13     8   ar
    24     6     1   ar
    25    19    20    1
    26    19    21    1
@<TRIPOS>MOLECULE
*****
 25 26 0 0 0
SMALL
GASTEIGER

@<TRIPOS>ATOM
      1 C          62.6004   89.5420   10.9755 C.ar    1  UNL1        0.0010
      2 C          63.3253   90.6148   10.2181 C.ar    1  UNL1        0.0032
      3 C          64.1148   91.6529   10.9589 C.ar    1  UNL1        0.0376
      4 C          64.1795   91.6183   12.4571 C.ar    1  UNL1        0.1481
      5 C          63.4546   90.5456   13.2145 C.ar    1  UNL1        0.1023
      6 C          62.6650   89.5074   12.4737 C.ar    1  UNL1        0.0133
      7 C          59.0534   88.2980    7.3878 C.3     1  UNL1        0.0521
      8 C          60.0373   87.8819    8.4408 C.ar    1  UNL1        0.0594
      9 C          60.8269   88.9199    9.1817 C.ar    1  UNL1        0.0147
     10 C          61.8107   88.5038   10.2347 C.ar    1  UNL1        0.0027
     11 C          62.0050   87.0496   10.5468 C.ar    1  UNL1        0.0207
     12 C          61.2155   86.0115    9.8060 C.ar    1  UNL1        0.0984
     13 N          60.2316   86.4277    8.7530 N.ar    1  UNL1       -0.2481
     14 C          63.5193   90.5109   14.7127 C.1     1  UNL1        0.1035
     15 N          63.5840   90.4763   16.2109 N.1     1  UNL1       -0.1907
     16 O          64.9691   92.6565   13.1979 O.3     1  UNL1       -0.4733
     17 C          66.3100   93.0881   12.6824 C.3     1  UNL1        0.2207
     18 C          67.5218   92.2441   12.9454 C.3     1  UNL1        0.0951
     19 N          68.4690   91.9228   11.8275 N.3     1  UNL1       -0.3192
     20 H          69.2302   91.3441   12.1826 H       1  UNL1        0.1189
     21 H          68.8498   92.7883   11.4451 H       1  UNL1        0.1189
     22 C          67.7865   91.7215   14.3263 C.3     1  UNL1        0.0193
     23 C          67.7034   92.6441   15.5061 C.3     1  UNL1        0.0014
     24 C          68.8501   93.5564   15.8269 C.3     1  UNL1        0.0000
     25 C          66.4738   92.6544   16.3650 C.3     1  UNL1        0.0000
@<TRIPOS>BOND
     1     7     8    1
     2     8     9   ar
     3     9    10   ar
     4    10     1    1
     5     1     2   ar
     6     2     3   ar
     7     3     4   ar
     8     4    16    1
     9    16    17    1
    10    17    18    1
    11    18    19    1
    12    18    22    1
    13    22    23    1
    14    23    24    1
    15    23    25    1
    16     4     5   ar
    17     5    14    1
    18    14    15    3
    19     5     6   ar
    20    10    11   ar
    21    11    12   ar
    22    12    13   ar
    23    13     8   ar
    24     6     1   ar
    25    19    20    1
    26    19    21    1
@<TRIPOS>MOLECULE
*****
 25 26 0 0 0
SMALL
GASTEIGER

@<TRIPOS>ATOM
      1 C          62.3598   89.0243   10.4981 C.ar    1  UNL1        0.0010
      2 C          62.7575   90.3489    9.9173 C.ar    1  UNL1        0.0032
      3 C          63.4520   91.3654   10.7741 C.ar    1  UNL1        0.0376
      4 C          63.7490   91.0573   12.2118 C.ar    1  UNL1        0.1481
      5 C          63.3514   89.7328   12.7926 C.ar    1  UNL1        0.1023
      6 C          62.6568   88.7162   11.9357 C.ar    1  UNL1        0.0133
      7 C          62.5425   84.7732    7.5157 C.3     1  UNL1        0.0521
      8 C          61.7566   85.8822    8.1500 C.ar    1  UNL1        0.0594
      9 C          62.4511   86.8987    9.0069 C.ar    1  UNL1        0.0147
     10 C          61.6652   88.0077    9.6412 C.ar    1  UNL1        0.0027
     11 C          60.1847   88.1003    9.4186 C.ar    1  UNL1        0.0207
     12 C          59.4902   87.0838    8.5617 C.ar    1  UNL1        0.0984
     13 N          60.2761   85.9747    7.9274 N.ar    1  UNL1       -0.2481
     14 C          63.6483   89.4247   14.2303 C.1     1  UNL1        0.1035
     15 N          63.9453   89.1166   15.6679 N.1     1  UNL1       -0.1907
     16 O          64.4436   92.0739   13.0686 O.3     1  UNL1       -0.4733
     17 C          65.8244   92.5384   12.7112 C.3     1  UNL1        0.2207
     18 C          66.0078   93.6760   11.7509 C.3     1  UNL1        0.0951
     19 N          66.0688   95.0854   12.2606 N.3     1  UNL1       -0.3192
     20 H          66.1959   95.7253   11.4765 H       1  UNL1        0.1189
     21 H          66.8524   95.1797   12.9067 H       1  UNL1        0.1189
     22 C          66.1302   93.4041   10.2808 C.3     1  UNL1        0.0193
     23 C          67.4716   93.4783    9.6135 C.3     1  UNL1        0.0014
     24 C          67.9184   94.7563    8.9677 C.3     1  UNL1        0.0000
     25 C          68.3662   92.2744    9.5920 C.3     1  UNL1        0.0000
@<TRIPOS>BOND
     1     7     8    1
     2     8     9   ar
     3     9    10   ar
     4    10     1    1
     5     1     2   ar
     6     2     3   ar
     7     3     4   ar
     8     4    16    1
     9    16    17    1
    10    17    18    1
    11    18    19    1
    12    18    22    1
    13    22    23    1
    14    23    24    1
    15    23    25    1
    16     4     5   ar
    17     5    14    1
    18    14    15    3
    19     5     6   ar
    20    10    11   ar
    21    11    12   ar
    22    12    13   ar
    23    13     8   ar
    24     6     1   ar
    25    19    20    1
    26    19    21    1
@<TRIPOS>MOLECULE
*****
 25 26 0 0 0
SMALL
GASTEIGER

@<TRIPOS>ATOM
      1 C          63.7836   87.1104   13.6317 C.ar    1  UNL1        0.0010
      2 C          64.4518   87.9535   14.6770 C.ar    1  UNL1        0.0032
      3 C          64.4945   89.4450   14.5230 C.ar    1  UNL1        0.0376
      4 C          63.8691   90.0934   13.3236 C.ar    1  UNL1        0.1481
      5 C          63.2009   89.2503   12.2783 C.ar    1  UNL1        0.1023
      6 C          63.1582   87.7588   12.4324 C.ar    1  UNL1        0.0133
      7 C          62.7177   82.4138   11.6810 C.3     1  UNL1        0.0521
      8 C          63.2079   83.2706   12.8104 C.ar    1  UNL1        0.0594
      9 C          63.2507   84.7621   12.6564 C.ar    1  UNL1        0.0147
     10 C          63.7409   85.6189   13.7857 C.ar    1  UNL1        0.0027
     11 C          64.1883   84.9844   15.0691 C.ar    1  UNL1        0.0207
     12 C          64.1456   83.4930   15.2231 C.ar    1  UNL1        0.0984
     13 N          63.6554   82.6361   14.0937 N.ar    1  UNL1       -0.2481
     14 C          62.5755   89.8986   11.0790 C.1     1  UNL1        0.1035
     15 N          61.9501   90.5470    9.8796 N.1     1  UNL1       -0.1907
     16 O          63.9118   91.5848   13.1697 O.3     1  UNL1       -0.4733
     17 C          65.0035   92.2247   12.3641 C.3     1  UNL1        0.2207
     18 C          66.1194   92.9499   13.0559 C.3     1  UNL1        0.0951
     19 N          66.2068   94.4451   12.9738 N.3     1  UNL1       -0.3192
     20 H          67.0204   94.7675   13.4978 H       1  UNL1        0.1189
     21 H          65.3621   94.8573   13.3701 H       1  UNL1        0.1189
     22 C          67.1481   92.1799   13.8299 C.3     1  UNL1        0.0193
     23 C          67.2915   92.3955   15.3074 C.3     1  UNL1        0.0014
     24 C          66.0701   92.5388   16.1664 C.3     1  UNL1        0.0000
     25 C          68.6561   92.4678   15.9259 C.3     1  UNL1        0.0000
@<TRIPOS>BOND
     1     7     8    1
     2     8     9   ar
     3     9    10   ar
     4    10     1    1
     5     1     2   ar
     6     2     3   ar
     7     3     4   ar
     8     4    16    1
     9    16    17    1
    10    17    18    1
    11    18    19    1
    12    18    22    1
    13    22    23    1
    14    23    24    1
    15    23    25    1
    16     4     5   ar
    17     5    14    1
    18    14    15    3
    19     5     6   ar
    20    10    11   ar
    21    11    12   ar
    22    12    13   ar
    23    13     8   ar
    24     6     1   ar
    25    19    20    1
    26    19    21    1
@<TRIPOS>MOLECULE
*****
 25 26 0 0 0
SMALL
GASTEIGER

@<TRIPOS>ATOM
      1 C          63.1437   85.1092   12.9574 C.ar    1  UNL1        0.0010
      2 C          63.9596   85.7218   14.0570 C.ar    1  UNL1        0.0032
      3 C          64.1867   87.2042   14.0857 C.ar    1  UNL1        0.0376
      4 C          63.5981   88.0741   13.0147 C.ar    1  UNL1        0.1481
      5 C          62.7823   87.4615   11.9151 C.ar    1  UNL1        0.1023
      6 C          62.5551   85.9790   11.8865 C.ar    1  UNL1        0.0133
      7 C          63.1308   80.6080   10.3614 C.3     1  UNL1        0.0521
      8 C          62.9101   81.3762   11.6307 C.ar    1  UNL1        0.0594
      9 C          63.1372   82.8586   11.6594 C.ar    1  UNL1        0.0147
     10 C          62.9166   83.6267   12.9288 C.ar    1  UNL1        0.0027
     11 C          62.4688   82.9125   14.1694 C.ar    1  UNL1        0.0207
     12 C          62.2416   81.4301   14.1407 C.ar    1  UNL1        0.0984
     13 N          62.4623   80.6620   12.8714 N.ar    1  UNL1       -0.2481
     14 C          62.1936   88.3312   10.8442 C.1     1  UNL1        0.1035
     15 N          61.6050   89.2010    9.7732 N.1     1  UNL1       -0.1907
     16 O          63.8253   89.5565   13.0434 O.3     1  UNL1       -0.4733
     17 C          63.2986   90.3740   14.1854 C.3     1  UNL1        0.2207
     18 C          64.2514   91.0418   15.1319 C.3     1  UNL1        0.0951
     19 N          63.7463   91.6220   16.4197 N.3     1  UNL1       -0.3192
     20 H          64.5242   92.0332   16.9356 H       1  UNL1        0.1189
     21 H          63.3184   90.8849   16.9800 H       1  UNL1        0.1189
     22 C          65.7095   91.1295   14.7908 C.3     1  UNL1        0.0193
     23 C          66.4275   92.4421   14.8988 C.3     1  UNL1        0.0014
     24 C          67.1609   92.7943   16.1589 C.3     1  UNL1        0.0000
     25 C          66.4119   93.4025   13.7467 C.3     1  UNL1        0.0000
@<TRIPOS>BOND
     1     7     8    1
     2     8     9   ar
     3     9    10   ar
     4    10     1    1
     5     1     2   ar
     6     2     3   ar
     7     3     4   ar
     8     4    16    1
     9    16    17    1
    10    17    18    1
    11    18    19    1
    12    18    22    1
    13    22    23    1
    14    23    24    1
    15    23    25    1
    16     4     5   ar
    17     5    14    1
    18    14    15    3
    19     5     6   ar
    20    10    11   ar
    21    11    12   ar
    22    12    13   ar
    23    13     8   ar
    24     6     1   ar
    25    19    20    1
    26    19    21    1
@<TRIPOS>MOLECULE
*****
 25 26 0 0 0
SMALL
GASTEIGER

@<TRIPOS>ATOM
      1 C          62.1717   89.5194   10.7657 C.ar    1  UNL1        0.0010
      2 C          62.0310   89.2693   12.2380 C.ar    1  UNL1        0.0032
      3 C          62.8362   90.0729   13.2156 C.ar    1  UNL1        0.0376
      4 C          63.7822   91.1268   12.7209 C.ar    1  UNL1        0.1481
      5 C          63.9229   91.3769   11.2486 C.ar    1  UNL1        0.1023
      6 C          63.1176   90.5732   10.2710 C.ar    1  UNL1        0.0133
      7 C          58.9533   89.3003    6.6922 C.3     1  UNL1        0.0521
      8 C          59.7572   88.6062    7.7514 C.ar    1  UNL1        0.0594
      9 C          60.5625   89.4098    8.7289 C.ar    1  UNL1        0.0147
     10 C          61.3664   88.7157    9.7881 C.ar    1  UNL1        0.0027
     11 C          61.3650   87.2179    9.8698 C.ar    1  UNL1        0.0207
     12 C          60.5598   86.4143    8.8922 C.ar    1  UNL1        0.0984
     13 N          59.7558   87.1084    7.8330 N.ar    1  UNL1       -0.2481
     14 C          64.8688   92.4307   10.7539 C.1     1  UNL1        0.1035
     15 N          65.8147   93.4844   10.2591 N.1     1  UNL1       -0.1907
     16 O          64.5874   91.9304   13.6984 O.3     1  UNL1       -0.4733
     17 C          64.9856   91.3306   15.0144 C.3     1  UNL1        0.2207
     18 C          65.4668   92.2146   16.1266 C.3     1  UNL1        0.0951
     19 N          64.4783   92.8676   17.0468 N.3     1  UNL1       -0.3192
     20 H          64.9764   93.4283   17.7381 H       1  UNL1        0.1189
     21 H          63.9305   92.1501   17.5217 H       1  UNL1        0.1189
     22 C          66.9364   92.4456   16.3187 C.3     1  UNL1        0.0193
     23 C          67.6539   93.4548   15.4720 C.3     1  UNL1        0.0014
     24 C          66.9812   94.0331   14.2625 C.3     1  UNL1        0.0000
     25 C          69.0441   93.8856   15.8349 C.3     1  UNL1        0.0000
@<TRIPOS>BOND
     1     7     8    1
     2     8     9   ar
     3     9    10   ar
     4    10     1    1
     5     1     2   ar
     6     2     3   ar
     7     3     4   ar
     8     4    16    1
     9    16    17    1
    10    17    18    1
    11    18    19    1
    12    18    22    1
    13    22    23    1
    14    23    24    1
    15    23    25    1
    16     4     5   ar
    17     5    14    1
    18    14    15    3
    19     5     6   ar
    20    10    11   ar
    21    11    12   ar
    22    12    13   ar
    23    13     8   ar
    24     6     1   ar
    25    19    20    1
    26    19    21    1
@<TRIPOS>MOLECULE
*****
 25 26 0 0 0
SMALL
GASTEIGER

@<TRIPOS>ATOM
      1 C          63.8288   87.9798   13.5568 C.ar    1  UNL1        0.0010
      2 C          63.2170   88.4596   12.2740 C.ar    1  UNL1        0.0032
      3 C          63.3231   89.9049   11.8871 C.ar    1  UNL1        0.0376
      4 C          64.0411   90.8705   12.7828 C.ar    1  UNL1        0.1481
      5 C          64.6529   90.3906   14.0656 C.ar    1  UNL1        0.1023
      6 C          64.5467   88.9452   14.4525 C.ar    1  UNL1        0.0133
      7 C          62.7212   83.0579   12.3125 C.3     1  UNL1        0.0521
      8 C          63.1688   84.0735   13.3216 C.ar    1  UNL1        0.0594
      9 C          63.2750   85.5188   12.9347 C.ar    1  UNL1        0.0147
     10 C          63.7226   86.5344   13.9437 C.ar    1  UNL1        0.0027
     11 C          64.0640   86.1047   15.3397 C.ar    1  UNL1        0.0207
     12 C          63.9578   84.6593   15.7266 C.ar    1  UNL1        0.0984
     13 N          63.5102   83.6437   14.7175 N.ar    1  UNL1       -0.2481
     14 C          65.3709   91.3560   14.9614 C.1     1  UNL1        0.1035
     15 N          66.0888   92.3214   15.8571 N.1     1  UNL1       -0.1907
     16 O          64.1473   92.3158   12.3959 O.3     1  UNL1       -0.4733
     17 C          65.0653   92.7290   11.2839 C.3     1  UNL1        0.2207
     18 C          66.2582   93.5899   11.5769 C.3     1  UNL1        0.0951
     19 N          67.0672   93.3533   12.8178 N.3     1  UNL1       -0.3192
     20 H          67.8342   94.0246   12.8567 H       1  UNL1        0.1189
     21 H          67.4450   92.4060   12.8019 H       1  UNL1        0.1189
     22 C          66.6421   94.6873   10.6292 C.3     1  UNL1        0.0193
     23 C          67.4009   94.3648    9.3761 C.3     1  UNL1        0.0014
     24 C          68.2894   93.1573    9.3271 C.3     1  UNL1        0.0000
     25 C          67.2712   95.2498    8.1720 C.3     1  UNL1        0.0000
@<TRIPOS>BOND
     1     7     8    1
     2     8     9   ar
     3     9    10   ar
     4    10     1    1
     5     1     2   ar
     6     2     3   ar
     7     3     4   ar
     8     4    16    1
     9    16    17    1
    10    17    18    1
    11    18    19    1
    12    18    22    1
    13    22    23    1
    14    23    24    1
    15    23    25    1
    16     4     5   ar
    17     5    14    1
    18    14    15    3
    19     5     6   ar
    20    10    11   ar
    21    11    12   ar
    22    12    13   ar
    23    13     8   ar
    24     6     1   ar
    25    19    20    1
    26    19    21    1
@<TRIPOS>MOLECULE
*****
 25 26 0 0 0
SMALL
GASTEIGER

@<TRIPOS>ATOM
      1 C          62.0485   88.6253   10.4452 C.ar    1  UNL1        0.0010
      2 C          62.0302   90.1168   10.2868 C.ar    1  UNL1        0.0032
      3 C          62.6779   90.9888   11.3213 C.ar    1  UNL1        0.0376
      4 C          63.3439   90.3694   12.5141 C.ar    1  UNL1        0.1481
      5 C          63.3622   88.8778   12.6724 C.ar    1  UNL1        0.1023
      6 C          62.7145   88.0058   11.6379 C.ar    1  UNL1        0.0133
      7 C          62.3100   84.6551    7.1031 C.3     1  UNL1        0.0521
      8 C          61.5316   85.7682    7.7396 C.ar    1  UNL1        0.0594
      9 C          62.1792   86.6402    8.7741 C.ar    1  UNL1        0.0147
     10 C          61.4008   87.7533    9.4107 C.ar    1  UNL1        0.0027
     11 C          59.9748   87.9943    9.0128 C.ar    1  UNL1        0.0207
     12 C          59.3272   87.1223    7.9783 C.ar    1  UNL1        0.0984
     13 N          60.1056   86.0093    7.3418 N.ar    1  UNL1       -0.2481
     14 C          64.0282   88.2584   13.8652 C.1     1  UNL1        0.1035
     15 N          64.6941   87.6389   15.0579 N.1     1  UNL1       -0.1907
     16 O          63.9916   91.2414   13.5485 O.3     1  UNL1       -0.4733
     17 C          65.4667   91.5069   13.4886 C.3     1  UNL1        0.2207
     18 C          65.9726   92.9172   13.4185 C.3     1  UNL1        0.0951
     19 N          65.8377   93.7000   12.1460 N.3     1  UNL1       -0.3192
     20 H          66.2316   94.6318   12.2766 H       1  UNL1        0.1189
     21 H          64.8513   93.7795   11.8987 H       1  UNL1        0.1189
     22 C          66.6135   93.5448   14.6207 C.3     1  UNL1        0.0193
     23 C          68.0349   93.2168   14.9700 C.3     1  UNL1        0.0014
     24 C          68.7332   92.0812   14.2824 C.3     1  UNL1        0.0000
     25 C          68.7580   94.0243   16.0068 C.3     1  UNL1        0.0000
@<TRIPOS>BOND
     1     7     8    1
     2     8     9   ar
     3     9    10   ar
     4    10     1    1
     5     1     2   ar
     6     2     3   ar
     7     3     4   ar
     8     4    16    1
     9    16    17    1
    10    17    18    1
    11    18    19    1
    12    18    22    1
    13    22    23    1
    14    23    24    1
    15    23    25    1
    16     4     5   ar
    17     5    14    1
    18    14    15    3
    19     5     6   ar
    20    10    11   ar
    21    11    12   ar
    22    12    13   ar
    23    13     8   ar
    24     6     1   ar
    25    19    20    1
    26    19    21    1
@<TRIPOS>MOLECULE
*****
 25 26 0 0 0
SMALL
GASTEIGER

@<TRIPOS>ATOM
      1 C          62.7823   89.8464   10.8135 C.ar    1  UNL1        0.0010
      2 C          62.9664   89.5266   12.2674 C.ar    1  UNL1        0.0032
      3 C          63.8427   90.3945   13.1211 C.ar    1  UNL1        0.0376
      4 C          64.5350   91.5822   12.5208 C.ar    1  UNL1        0.1481
      5 C          64.3508   91.9020   11.0669 C.ar    1  UNL1        0.1023
      6 C          63.4745   91.0340   10.2133 C.ar    1  UNL1        0.0133
      7 C          61.9336   85.3526    8.3465 C.3     1  UNL1        0.0521
      8 C          61.4816   86.7316    8.7263 C.ar    1  UNL1        0.0594
      9 C          62.3579   87.5995    9.5799 C.ar    1  UNL1        0.0147
     10 C          61.9059   88.9784    9.9598 C.ar    1  UNL1        0.0027
     11 C          60.5776   89.4894    9.4860 C.ar    1  UNL1        0.0207
     12 C          59.7013   88.6214    8.6324 C.ar    1  UNL1        0.0984
     13 N          60.1533   87.2425    8.2526 N.ar    1  UNL1       -0.2481
     14 C          65.0430   93.0896   10.4667 C.1     1  UNL1        0.1035
     15 N          65.7352   94.2773    9.8665 N.1     1  UNL1       -0.1907
     16 O          65.4113   92.4501   13.3745 O.3     1  UNL1       -0.4733
     17 C          66.8075   92.7727   12.9311 C.3     1  UNL1        0.2207
     18 C          67.9672   91.9961   13.4807 C.3     1  UNL1        0.0951
     19 N          69.0732   91.5540   12.5689 N.3     1  UNL1       -0.3192
     20 H          69.7731   91.0425   13.1065 H       1  UNL1        0.1189
     21 H          69.5058   92.3710   12.1380 H       1  UNL1        0.1189
     22 C          68.0209   91.6617   14.9419 C.3     1  UNL1        0.0193
     23 C          67.6767   92.7051   15.9632 C.3     1  UNL1        0.0014
     24 C          68.6441   93.8124   16.2596 C.3     1  UNL1        0.0000
     25 C          66.3651   92.6410   16.6881 C.3     1  UNL1        0.0000
@<TRIPOS>BOND
     1     7     8    1
     2     8     9   ar
     3     9    10   ar
     4    10     1    1
     5     1     2   ar
     6     2     3   ar
     7     3     4   ar
     8     4    16    1
     9    16    17    1
    10    17    18    1
    11    18    19    1
    12    18    22    1
    13    22    23    1
    14    23    24    1
    15    23    25    1
    16     4     5   ar
    17     5    14    1
    18    14    15    3
    19     5     6   ar
    20    10    11   ar
    21    11    12   ar
    22    12    13   ar
    23    13     8   ar
    24     6     1   ar
    25    19    20    1
    26    19    21    1
