@<TRIPOS>MOLECULE
*****
 36 39 0 0 0
SMALL
GASTEIGER

@<TRIPOS>ATOM
      1 C          61.2183   87.7527    9.6088 C.ar    1  UNL1        0.1160
      2 C          61.1458   89.2198    9.3054 C.ar    1  UNL1        0.1435
      3 N          60.2586   89.7145    8.2018 N.pl3   1  UNL1       -0.3415
      4 N          61.9606   90.1924   10.1056 N.ar    1  UNL1       -0.2093
      5 C          62.8479   89.6978   11.2092 C.ar    1  UNL1        0.1844
      6 N          62.9204   88.2305   11.5126 N.ar    1  UNL1       -0.2093
      7 C          62.1056   87.2580   10.7124 C.ar    1  UNL1        0.1435
      8 N          62.1782   85.7909   11.0159 N.pl3   1  UNL1       -0.3415
      9 H          59.7238   89.0762    7.6766 H       1  UNL1        0.1438
     10 H          60.2110   90.6775    8.0026 H       1  UNL1        0.1438
     11 H          62.7606   85.4662   11.7403 H       1  UNL1        0.1438
     12 H          61.6434   85.1525   10.4908 H       1  UNL1        0.1438
     13 C          63.6627   90.6703   12.0094 C.ar    1  UNL1        0.1396
     14 N          64.5163   91.7718   11.4543 N.ar    1  UNL1       -0.1645
     15 N          65.1480   92.4943   12.6071 N.ar    1  UNL1       -0.2293
     16 C          64.6849   91.8394   13.8746 C.ar    1  UNL1        0.1614
     17 N          64.9805   92.1239   15.3174 N.ar    1  UNL1       -0.2230
     18 C          64.3580   91.2811   16.3908 C.ar    1  UNL1        0.1301
     19 C          63.4400   90.1538   16.0214 C.ar    1  UNL1        0.1594
     20 F          62.8176   89.3110   17.0948 F       1  UNL1       -0.2025
     21 C          63.1444   89.8693   14.5786 C.ar    1  UNL1        0.0360
     22 C          63.7669   90.7121   13.5052 C.ar    1  UNL1        0.0601
     23 C          66.0794   93.6660   12.5095 C.3     1  UNL1        0.1577
     24 C          66.4411   94.2268   11.1660 C.ar    1  UNL1        0.0296
     25 C          65.9532   95.5875   10.7652 C.ar    1  UNL1       -0.0001
     26 C          66.3148   96.1483    9.4219 C.ar    1  UNL1       -0.0001
     27 C          67.1642   95.3484    8.4792 C.ar    1  UNL1        0.0023
     28 C          67.6521   93.9878    8.8800 C.ar    1  UNL1        0.0294
     29 C          67.2905   93.4270   10.2233 C.ar    1  UNL1        0.1380
     30 F          67.7784   92.0663   10.6241 F       1  UNL1       -0.2044
     31 C          61.0846   85.8023    7.8975 C.2     1  UNL1        0.4056
     32 O          62.5805   85.7971    7.7867 O.2     1  UNL1       -0.2261
     33 N          60.4036   86.7801    8.8086 N.am    1  UNL1       -0.2452
     34 H          59.4218   86.7836    8.8813 H       1  UNL1        0.1584
     35 C          60.9016   84.0748    5.9657 C.3     1  UNL1        0.2574
     36 O          60.2698   84.8298    7.0973 O.3     1  UNL1       -0.4304
@<TRIPOS>BOND
     1    35    36    1
     2    36    31    1
     3    31    32    2
     4    31    33   am
     5    33     1    1
     6     1     2   ar
     7     2     3    1
     8     2     4   ar
     9     4     5   ar
    10     5    13    1
    11    13    14   ar
    12    14    15   ar
    13    15    23    1
    14    23    24    1
    15    24    25   ar
    16    25    26   ar
    17    26    27   ar
    18    27    28   ar
    19    28    29   ar
    20    29    30    1
    21    15    16   ar
    22    16    17   ar
    23    17    18   ar
    24    18    19   ar
    25    19    20    1
    26    19    21   ar
    27    21    22   ar
    28     5     6   ar
    29     6     7   ar
    30     7     8    1
    31     7     1   ar
    32    22    13   ar
    33    29    24   ar
    34    22    16   ar
    35    33    34    1
    36     3     9    1
    37     3    10    1
    38     8    11    1
    39     8    12    1
@<TRIPOS>MOLECULE
*****
 36 39 0 0 0
SMALL
GASTEIGER

@<TRIPOS>ATOM
      1 C          61.1856   87.7212    9.6162 C.ar    1  UNL1        0.1160
      2 C          62.0519   87.2100   10.7289 C.ar    1  UNL1        0.1435
      3 N          62.1115   85.7393   11.0179 N.pl3   1  UNL1       -0.3415
      4 N          62.8587   88.1695   11.5527 N.ar    1  UNL1       -0.2093
      5 C          62.7991   89.6402   11.2638 C.ar    1  UNL1        0.1844
      6 N          61.9328   90.1514   10.1510 N.ar    1  UNL1       -0.2093
      7 C          61.1260   89.1919    9.3272 C.ar    1  UNL1        0.1435
      8 N          60.2597   89.7032    8.2146 N.pl3   1  UNL1       -0.3415
      9 H          61.5820   85.1096   10.4772 H       1  UNL1        0.1438
     10 H          62.6801   85.4038   11.7482 H       1  UNL1        0.1438
     11 H          60.2207   90.6685    8.0249 H       1  UNL1        0.1438
     12 H          59.7302   89.0735    7.6739 H       1  UNL1        0.1438
     13 C          63.6059   90.5997   12.0875 C.ar    1  UNL1        0.1396
     14 N          64.4584   91.7149   11.5590 N.ar    1  UNL1       -0.1645
     15 N          65.0811   92.4168   12.7293 N.ar    1  UNL1       -0.2293
     16 C          64.6134   91.7354   13.9810 C.ar    1  UNL1        0.1614
     17 N          64.9000   91.9925   15.4308 N.ar    1  UNL1       -0.2230
     18 C          64.2748   91.1264   16.4838 C.ar    1  UNL1        0.1301
     19 C          63.3630   90.0033   16.0872 C.ar    1  UNL1        0.1594
     20 F          62.7378   89.1373   17.1404 F       1  UNL1       -0.2025
     21 C          63.0765   89.7463   14.6375 C.ar    1  UNL1        0.0360
     22 C          63.7017   90.6123   13.5844 C.ar    1  UNL1        0.0601
     23 C          66.0087   93.5936   12.6600 C.3     1  UNL1        0.1577
     24 C          66.5779   94.0233   11.3402 C.ar    1  UNL1        0.0296
     25 C          67.2760   93.0259   10.4640 C.ar    1  UNL1       -0.0001
     26 C          67.8451   93.4554    9.1444 C.ar    1  UNL1       -0.0001
     27 C          67.7161   94.8826    8.7010 C.ar    1  UNL1        0.0023
     28 C          67.0181   95.8801    9.5772 C.ar    1  UNL1        0.0294
     29 C          66.4489   95.4505   10.8968 C.ar    1  UNL1        0.1380
     30 F          65.7508   96.4479   11.7730 F       1  UNL1       -0.2044
     31 C          61.0695   85.7915    7.8805 C.2     1  UNL1        0.4056
     32 O          62.5668   85.7808    7.7922 O.2     1  UNL1       -0.2261
     33 N          60.3789   86.7617    8.7925 N.am    1  UNL1       -0.2452
     34 H          59.3961   86.7688    8.8504 H       1  UNL1        0.1584
     35 C          60.9141   84.0692    5.9415 C.3     1  UNL1        0.2574
     36 O          60.2626   84.8320    7.0568 O.3     1  UNL1       -0.4304
@<TRIPOS>BOND
     1    35    36    1
     2    36    31    1
     3    31    32    2
     4    31    33   am
     5    33     1    1
     6     1     2   ar
     7     2     3    1
     8     2     4   ar
     9     4     5   ar
    10     5    13    1
    11    13    14   ar
    12    14    15   ar
    13    15    23    1
    14    23    24    1
    15    24    25   ar
    16    25    26   ar
    17    26    27   ar
    18    27    28   ar
    19    28    29   ar
    20    29    30    1
    21    15    16   ar
    22    16    17   ar
    23    17    18   ar
    24    18    19   ar
    25    19    20    1
    26    19    21   ar
    27    21    22   ar
    28     5     6   ar
    29     6     7   ar
    30     7     8    1
    31     7     1   ar
    32    22    13   ar
    33    29    24   ar
    34    22    16   ar
    35    33    34    1
    36     3     9    1
    37     3    10    1
    38     8    11    1
    39     8    12    1
@<TRIPOS>MOLECULE
*****
 36 39 0 0 0
SMALL
GASTEIGER

@<TRIPOS>ATOM
      1 C          65.7078   92.5869   14.3253 C.ar    1  UNL1        0.1160
      2 C          65.8203   92.3079   12.8558 C.ar    1  UNL1        0.1435
      3 N          66.7246   93.1450   12.0006 N.pl3   1  UNL1       -0.3415
      4 N          65.0286   91.1917   12.2415 N.ar    1  UNL1       -0.2093
      5 C          64.1243   90.3546   13.0967 C.ar    1  UNL1        0.1844
      6 N          64.0117   90.6336   14.5663 N.ar    1  UNL1       -0.2093
      7 C          64.8035   91.7497   15.1805 C.ar    1  UNL1        0.1435
      8 N          64.6909   92.0286   16.6500 N.pl3   1  UNL1       -0.3415
      9 H          67.2443   93.8776   12.4038 H       1  UNL1        0.1438
     10 H          66.7985   92.9619   11.0361 H       1  UNL1        0.1438
     11 H          64.0974   91.4791   17.2113 H       1  UNL1        0.1438
     12 H          65.2105   92.7612   17.0533 H       1  UNL1        0.1438
     13 C          63.3325   89.2384   12.4824 C.ar    1  UNL1        0.1396
     14 N          62.3682   89.3660   11.3406 N.ar    1  UNL1       -0.1645
     15 N          61.8058   88.0051   11.0546 N.ar    1  UNL1       -0.2293
     16 C          62.4226   87.0365   12.0197 C.ar    1  UNL1        0.1614
     17 N          62.2469   85.5589   12.2089 N.ar    1  UNL1       -0.2230
     18 C          63.0149   84.8435   13.2806 C.ar    1  UNL1        0.1301
     19 C          63.9585   85.6058   14.1630 C.ar    1  UNL1        0.1594
     20 F          64.7264   84.8903   15.2347 F       1  UNL1       -0.2025
     21 C          64.1341   87.0833   13.9737 C.ar    1  UNL1        0.0360
     22 C          63.3662   87.7987   12.9021 C.ar    1  UNL1        0.0601
     23 C          60.8027   87.6715    9.9904 C.3     1  UNL1        0.1577
     24 C          61.1469   86.6783    8.9202 C.ar    1  UNL1        0.0296
     25 C          62.5474   86.1531    8.8068 C.ar    1  UNL1       -0.0001
     26 C          62.8916   85.1600    7.7367 C.ar    1  UNL1       -0.0001
     27 C          61.8354   84.6922    6.7799 C.ar    1  UNL1        0.0023
     28 C          60.4350   85.2175    6.8932 C.ar    1  UNL1        0.0294
     29 C          60.0907   86.2105    7.9634 C.ar    1  UNL1        0.1380
     30 F          58.6902   86.7358    8.0767 F       1  UNL1       -0.2044
     31 C          67.7794   93.4050   15.6629 C.2     1  UNL1        0.4056
     32 O          68.2675   91.9908   15.7719 O.2     1  UNL1       -0.2261
     33 N          66.4995   93.7030   14.9396 N.am    1  UNL1       -0.2452
     34 H          66.1792   94.6312   14.8681 H       1  UNL1        0.1584
     35 C          70.0577   94.5800   16.0858 C.3     1  UNL1        0.2574
     36 O          68.5711   94.5212   16.2772 O.3     1  UNL1       -0.4304
@<TRIPOS>BOND
     1    35    36    1
     2    36    31    1
     3    31    32    2
     4    31    33   am
     5    33     1    1
     6     1     2   ar
     7     2     3    1
     8     2     4   ar
     9     4     5   ar
    10     5    13    1
    11    13    14   ar
    12    14    15   ar
    13    15    23    1
    14    23    24    1
    15    24    25   ar
    16    25    26   ar
    17    26    27   ar
    18    27    28   ar
    19    28    29   ar
    20    29    30    1
    21    15    16   ar
    22    16    17   ar
    23    17    18   ar
    24    18    19   ar
    25    19    20    1
    26    19    21   ar
    27    21    22   ar
    28     5     6   ar
    29     6     7   ar
    30     7     8    1
    31     7     1   ar
    32    22    13   ar
    33    29    24   ar
    34    22    16   ar
    35    33    34    1
    36     3     9    1
    37     3    10    1
    38     8    11    1
    39     8    12    1
@<TRIPOS>MOLECULE
*****
 36 39 0 0 0
SMALL
GASTEIGER

@<TRIPOS>ATOM
      1 C          63.3150   83.0091   12.7550 C.ar    1  UNL1        0.1160
      2 C          62.9144   84.0849   13.7204 C.ar    1  UNL1        0.1435
      3 N          62.8522   83.7890   15.1896 N.pl3   1  UNL1       -0.3415
      4 N          62.5761   85.4567   13.2167 N.ar    1  UNL1       -0.2093
      5 C          62.6384   85.7527   11.7476 C.ar    1  UNL1        0.1844
      6 N          63.0389   84.6768   10.7820 N.ar    1  UNL1       -0.2093
      7 C          63.3772   83.3050   11.2858 C.ar    1  UNL1        0.1435
      8 N          63.7777   82.2293   10.3203 N.pl3   1  UNL1       -0.3415
      9 H          63.0742   82.8886   15.5202 H       1  UNL1        0.1438
     10 H          62.5893   84.4951   15.8233 H       1  UNL1        0.1438
     11 H          63.8185   82.4236    9.3560 H       1  UNL1        0.1438
     12 H          63.9997   81.3289   10.6508 H       1  UNL1        0.1438
     13 C          62.3001   87.1245   11.2438 C.ar    1  UNL1        0.1396
     14 N          62.8310   88.4185   11.7857 N.ar    1  UNL1       -0.1645
     15 N          62.2305   89.5369   10.9865 N.ar    1  UNL1       -0.2293
     16 C          61.3284   88.9340    9.9507 C.ar    1  UNL1        0.1614
     17 N          60.4734   89.5501    8.8833 N.ar    1  UNL1       -0.2230
     18 C          59.6614   88.6752    7.9750 C.ar    1  UNL1        0.1301
     19 C          59.7044   87.1843    8.1340 C.ar    1  UNL1        0.1594
     20 F          58.8923   86.3094    7.2255 F       1  UNL1       -0.2025
     21 C          60.5594   86.5682    9.2014 C.ar    1  UNL1        0.0360
     22 C          61.3714   87.4431   10.1098 C.ar    1  UNL1        0.0601
     23 C          62.4870   91.0010   11.1878 C.3     1  UNL1        0.1577
     24 C          63.8346   91.4696   11.6510 C.ar    1  UNL1        0.0296
     25 C          64.7832   92.1046   10.6779 C.ar    1  UNL1       -0.0001
     26 C          66.1307   92.5732   11.1411 C.ar    1  UNL1       -0.0001
     27 C          66.5296   92.4068   12.5775 C.ar    1  UNL1        0.0023
     28 C          65.5810   91.7718   13.5506 C.ar    1  UNL1        0.0294
     29 C          64.2335   91.3032   13.0874 C.ar    1  UNL1        0.1380
     30 F          63.2849   90.6683   14.0605 F       1  UNL1       -0.2044
     31 C          62.5873   80.7807   13.8751 C.2     1  UNL1        0.4056
     32 O          61.1831   81.2959   13.9879 O.2     1  UNL1       -0.2261
     33 N          63.6532   81.6373   13.2587 N.am    1  UNL1       -0.2452
     34 H          64.5749   81.2992   13.1847 H       1  UNL1        0.1584
     35 C          62.4349   78.1975   13.6429 C.3     1  UNL1        0.2574
     36 O          62.9257   79.4089   14.3789 O.3     1  UNL1       -0.4304
@<TRIPOS>BOND
     1    35    36    1
     2    36    31    1
     3    31    32    2
     4    31    33   am
     5    33     1    1
     6     1     2   ar
     7     2     3    1
     8     2     4   ar
     9     4     5   ar
    10     5    13    1
    11    13    14   ar
    12    14    15   ar
    13    15    23    1
    14    23    24    1
    15    24    25   ar
    16    25    26   ar
    17    26    27   ar
    18    27    28   ar
    19    28    29   ar
    20    29    30    1
    21    15    16   ar
    22    16    17   ar
    23    17    18   ar
    24    18    19   ar
    25    19    20    1
    26    19    21   ar
    27    21    22   ar
    28     5     6   ar
    29     6     7   ar
    30     7     8    1
    31     7     1   ar
    32    22    13   ar
    33    29    24   ar
    34    22    16   ar
    35    33    34    1
    36     3     9    1
    37     3    10    1
    38     8    11    1
    39     8    12    1
@<TRIPOS>MOLECULE
*****
 36 39 0 0 0
SMALL
GASTEIGER

@<TRIPOS>ATOM
      1 C          63.3120   83.0060   12.7370 C.ar    1  UNL1        0.1160
      2 C          63.3654   83.3093   11.2689 C.ar    1  UNL1        0.1435
      3 N          63.7548   82.2368   10.2952 N.pl3   1  UNL1       -0.3415
      4 N          63.0295   84.6851   10.7746 N.ar    1  UNL1       -0.2093
      5 C          62.6401   85.7576   11.7482 C.ar    1  UNL1        0.1844
      6 N          62.5867   85.4543   13.2164 N.ar    1  UNL1       -0.2093
      7 C          62.9226   84.0785   13.7107 C.ar    1  UNL1        0.1435
      8 N          62.8691   83.7753   15.1787 N.pl3   1  UNL1       -0.3415
      9 H          63.9753   81.3338   10.6197 H       1  UNL1        0.1438
     10 H          63.7899   82.4359    9.3317 H       1  UNL1        0.1438
     11 H          62.6135   84.4792   15.8177 H       1  UNL1        0.1438
     12 H          63.0896   82.8723   15.5032 H       1  UNL1        0.1438
     13 C          62.3042   87.1334   11.2539 C.ar    1  UNL1        0.1396
     14 N          62.8371   88.4227   11.8049 N.ar    1  UNL1       -0.1645
     15 N          62.2387   89.5475   11.0133 N.ar    1  UNL1       -0.2293
     16 C          61.3359   88.9534    9.9731 C.ar    1  UNL1        0.1614
     17 N          60.4822   89.5782    8.9098 N.ar    1  UNL1       -0.2230
     18 C          59.6690   88.7110    7.9952 C.ar    1  UNL1        0.1301
     19 C          59.7095   87.2189    8.1439 C.ar    1  UNL1        0.1594
     20 F          58.8962   86.3517    7.2292 F       1  UNL1       -0.2025
     21 C          60.5632   86.5941    9.2072 C.ar    1  UNL1        0.0360
     22 C          61.3764   87.4613   10.1218 C.ar    1  UNL1        0.0601
     23 C          62.4975   91.0098   11.2247 C.3     1  UNL1        0.1577
     24 C          63.8449   91.4728   11.6941 C.ar    1  UNL1        0.0296
     25 C          64.7939   92.1195   10.7291 C.ar    1  UNL1       -0.0001
     26 C          66.1412   92.5825   11.1983 C.ar    1  UNL1       -0.0001
     27 C          66.5396   92.3987   12.6327 C.ar    1  UNL1        0.0023
     28 C          65.5907   91.7520   13.5978 C.ar    1  UNL1        0.0294
     29 C          64.2434   91.2890   13.1285 C.ar    1  UNL1        0.1380
     30 F          63.2945   90.6423   14.0936 F       1  UNL1       -0.2044
     31 C          62.5806   80.7714   13.8423 C.2     1  UNL1        0.4056
     32 O          61.1774   81.2884   13.9590 O.2     1  UNL1       -0.2261
     33 N          63.6479   81.6302   13.2313 N.am    1  UNL1       -0.2452
     34 H          64.5689   81.2908   13.1547 H       1  UNL1        0.1584
     35 C          62.4415   78.1903   13.5806 C.3     1  UNL1        0.2574
     36 O          62.9166   79.3956   14.3366 O.3     1  UNL1       -0.4304
@<TRIPOS>BOND
     1    35    36    1
     2    36    31    1
     3    31    32    2
     4    31    33   am
     5    33     1    1
     6     1     2   ar
     7     2     3    1
     8     2     4   ar
     9     4     5   ar
    10     5    13    1
    11    13    14   ar
    12    14    15   ar
    13    15    23    1
    14    23    24    1
    15    24    25   ar
    16    25    26   ar
    17    26    27   ar
    18    27    28   ar
    19    28    29   ar
    20    29    30    1
    21    15    16   ar
    22    16    17   ar
    23    17    18   ar
    24    18    19   ar
    25    19    20    1
    26    19    21   ar
    27    21    22   ar
    28     5     6   ar
    29     6     7   ar
    30     7     8    1
    31     7     1   ar
    32    22    13   ar
    33    29    24   ar
    34    22    16   ar
    35    33    34    1
    36     3     9    1
    37     3    10    1
    38     8    11    1
    39     8    12    1
@<TRIPOS>MOLECULE
*****
 36 39 0 0 0
SMALL
GASTEIGER

@<TRIPOS>ATOM
      1 C          59.7345   87.7403    8.3689 C.ar    1  UNL1        0.1160
      2 C          60.2233   88.5558    9.5290 C.ar    1  UNL1        0.1435
      3 N          59.8077   89.9907    9.6650 N.pl3   1  UNL1       -0.3415
      4 N          61.1276   87.9365   10.5530 N.ar    1  UNL1       -0.2093
      5 C          61.5431   86.5018   10.4171 C.ar    1  UNL1        0.1844
      6 N          61.0543   85.6861    9.2569 N.ar    1  UNL1       -0.2093
      7 C          60.1500   86.3054    8.2328 C.ar    1  UNL1        0.1435
      8 N          59.6612   85.4898    7.0727 N.pl3   1  UNL1       -0.3415
      9 H          59.2142   90.3971    8.9929 H       1  UNL1        0.1438
     10 H          60.1286   90.5260   10.4265 H       1  UNL1        0.1438
     11 H          59.9340   84.5480    6.9835 H       1  UNL1        0.1438
     12 H          59.0677   85.8962    6.4006 H       1  UNL1        0.1438
     13 C          62.4474   85.8825   11.4411 C.ar    1  UNL1        0.1396
     14 N          63.0239   86.5733   12.6413 N.ar    1  UNL1       -0.1645
     15 N          63.8668   85.5814   13.3867 N.ar    1  UNL1       -0.2293
     16 C          63.8112   84.2775   12.6472 C.ar    1  UNL1        0.1614
     17 N          64.4460   82.9448   12.9135 N.ar    1  UNL1       -0.2230
     18 C          64.2036   81.7982   11.9773 C.ar    1  UNL1        0.1301
     19 C          63.3264   81.9843   10.7749 C.ar    1  UNL1        0.1594
     20 F          63.0840   80.8376    9.8386 F       1  UNL1       -0.2025
     21 C          62.6916   83.3170   10.5086 C.ar    1  UNL1        0.0360
     22 C          62.9340   84.4636   11.4448 C.ar    1  UNL1        0.0601
     23 C          64.6311   85.8468   14.6498 C.3     1  UNL1        0.1577
     24 C          63.9672   86.5549   15.7934 C.ar    1  UNL1        0.0296
     25 C          63.4102   85.7668   16.9418 C.ar    1  UNL1       -0.0001
     26 C          62.7464   86.4749   18.0854 C.ar    1  UNL1       -0.0001
     27 C          62.6394   87.9710   18.0806 C.ar    1  UNL1        0.0023
     28 C          63.1963   88.7591   16.9323 C.ar    1  UNL1        0.0294
     29 C          63.8602   88.0511   15.7887 C.ar    1  UNL1        0.1380
     30 F          64.4172   88.8391   14.6403 F       1  UNL1       -0.2044
     31 C          59.3046   89.5295    6.5348 C.2     1  UNL1        0.4056
     32 O          60.6833   90.0801    6.7488 O.2     1  UNL1       -0.2261
     33 N          58.8301   88.3595    7.3448 N.am    1  UNL1       -0.2452
     34 H          57.9252   87.9981    7.2043 H       1  UNL1        0.1584
     35 C          58.5938   91.5802    5.1068 C.3     1  UNL1        0.2574
     36 O          58.4002   90.1487    5.5107 O.3     1  UNL1       -0.4304
@<TRIPOS>BOND
     1    35    36    1
     2    36    31    1
     3    31    32    2
     4    31    33   am
     5    33     1    1
     6     1     2   ar
     7     2     3    1
     8     2     4   ar
     9     4     5   ar
    10     5    13    1
    11    13    14   ar
    12    14    15   ar
    13    15    23    1
    14    23    24    1
    15    24    25   ar
    16    25    26   ar
    17    26    27   ar
    18    27    28   ar
    19    28    29   ar
    20    29    30    1
    21    15    16   ar
    22    16    17   ar
    23    17    18   ar
    24    18    19   ar
    25    19    20    1
    26    19    21   ar
    27    21    22   ar
    28     5     6   ar
    29     6     7   ar
    30     7     8    1
    31     7     1   ar
    32    22    13   ar
    33    29    24   ar
    34    22    16   ar
    35    33    34    1
    36     3     9    1
    37     3    10    1
    38     8    11    1
    39     8    12    1
@<TRIPOS>MOLECULE
*****
 36 39 0 0 0
SMALL
GASTEIGER

@<TRIPOS>ATOM
      1 C          64.6517   91.4106   14.4466 C.ar    1  UNL1        0.1160
      2 C          64.8726   91.3402   12.9646 C.ar    1  UNL1        0.1435
      3 N          65.7029   92.3848   12.2796 N.pl3   1  UNL1       -0.3415
      4 N          64.2632   90.2250   12.1677 N.ar    1  UNL1       -0.2093
      5 C          63.4329   89.1804   12.8527 C.ar    1  UNL1        0.1844
      6 N          63.2120   89.2509   14.3347 N.ar    1  UNL1       -0.2093
      7 C          63.8214   90.3660   15.1316 C.ar    1  UNL1        0.1435
      8 N          63.6005   90.4364   16.6136 N.pl3   1  UNL1       -0.3415
      9 H          66.1029   93.1167   12.8026 H       1  UNL1        0.1438
     10 H          65.8478   92.3386   11.3069 H       1  UNL1        0.1438
     11 H          63.0556   89.7507   17.0631 H       1  UNL1        0.1438
     12 H          64.0005   91.1683   17.1367 H       1  UNL1        0.1438
     13 C          62.8235   88.0652   12.0557 C.ar    1  UNL1        0.1396
     14 N          63.0962   86.6013   12.2361 N.ar    1  UNL1       -0.1645
     15 N          62.2756   85.8496   11.2304 N.ar    1  UNL1       -0.2293
     16 C          61.4957   86.8489   10.4285 C.ar    1  UNL1        0.1614
     17 N          60.5209   86.6889    9.2997 N.ar    1  UNL1       -0.2230
     18 C          59.8847   87.8983    8.6810 C.ar    1  UNL1        0.1301
     19 C          60.2233   89.2676    9.1912 C.ar    1  UNL1        0.1594
     20 F          59.5871   90.4770    8.5725 F       1  UNL1       -0.2025
     21 C          61.1981   89.4276   10.3199 C.ar    1  UNL1        0.0360
     22 C          61.8342   88.2183   10.9386 C.ar    1  UNL1        0.0601
     23 C          62.2410   84.3601   11.0569 C.3     1  UNL1        0.1577
     24 C          62.6434   83.4635   12.1903 C.ar    1  UNL1        0.0296
     25 C          62.5033   83.9364   13.6069 C.ar    1  UNL1       -0.0001
     26 C          62.9056   83.0400   14.7401 C.ar    1  UNL1       -0.0001
     27 C          63.4480   81.6705   14.4568 C.ar    1  UNL1        0.0023
     28 C          63.5881   81.1975   13.0403 C.ar    1  UNL1        0.0294
     29 C          63.1858   82.0940   11.9070 C.ar    1  UNL1        0.1380
     30 F          63.3258   81.6210   10.4904 F       1  UNL1       -0.2044
     31 C          66.7480   92.5878   15.4314 C.2     1  UNL1        0.4056
     32 O          67.6255   91.5346   14.8224 O.2     1  UNL1       -0.2261
     33 N          65.2612   92.5258   15.2435 N.am    1  UNL1       -0.2452
     34 H          64.6852   93.2170   15.6432 H       1  UNL1        0.1584
     35 C          68.8183   94.0133   16.0887 C.3     1  UNL1        0.2574
     36 O          67.3574   93.7030   16.2283 O.3     1  UNL1       -0.4304
@<TRIPOS>BOND
     1    35    36    1
     2    36    31    1
     3    31    32    2
     4    31    33   am
     5    33     1    1
     6     1     2   ar
     7     2     3    1
     8     2     4   ar
     9     4     5   ar
    10     5    13    1
    11    13    14   ar
    12    14    15   ar
    13    15    23    1
    14    23    24    1
    15    24    25   ar
    16    25    26   ar
    17    26    27   ar
    18    27    28   ar
    19    28    29   ar
    20    29    30    1
    21    15    16   ar
    22    16    17   ar
    23    17    18   ar
    24    18    19   ar
    25    19    20    1
    26    19    21   ar
    27    21    22   ar
    28     5     6   ar
    29     6     7   ar
    30     7     8    1
    31     7     1   ar
    32    22    13   ar
    33    29    24   ar
    34    22    16   ar
    35    33    34    1
    36     3     9    1
    37     3    10    1
    38     8    11    1
    39     8    12    1
@<TRIPOS>MOLECULE
*****
 36 39 0 0 0
SMALL
GASTEIGER

@<TRIPOS>ATOM
      1 C          59.6292   88.1270    8.2178 C.ar    1  UNL1        0.1160
      2 C          60.0570   89.0854    9.2895 C.ar    1  UNL1        0.1435
      3 N          59.6067   90.5154    9.2401 N.pl3   1  UNL1       -0.3415
      4 N          60.9352   88.6139   10.4104 N.ar    1  UNL1       -0.2093
      5 C          61.3855   87.1841   10.4598 C.ar    1  UNL1        0.1844
      6 N          60.9577   86.2256    9.3882 N.ar    1  UNL1       -0.2093
      7 C          60.0796   86.6971    8.2672 C.ar    1  UNL1        0.1435
      8 N          59.6518   85.7386    7.1956 N.pl3   1  UNL1       -0.3415
      9 H          59.0303   90.8248    8.5044 H       1  UNL1        0.1438
     10 H          59.8875   91.1444    9.9434 H       1  UNL1        0.1438
     11 H          59.9474   84.8001    7.2281 H       1  UNL1        0.1438
     12 H          59.0755   86.0480    6.4599 H       1  UNL1        0.1438
     13 C          62.2636   86.7125   11.5808 C.ar    1  UNL1        0.1396
     14 N          62.5357   85.2834   11.9463 N.ar    1  UNL1       -0.1645
     15 N          63.4641   85.2751   13.1245 N.ar    1  UNL1       -0.2293
     16 C          63.7658   86.6990   13.4871 C.ar    1  UNL1        0.1614
     17 N          64.6202   87.3014   14.5628 N.ar    1  UNL1       -0.2230
     18 C          64.7327   88.7922   14.6844 C.ar    1  UNL1        0.1301
     19 C          63.9907   89.6806   13.7303 C.ar    1  UNL1        0.1594
     20 F          64.1032   91.1715   13.8519 F       1  UNL1       -0.2025
     21 C          63.1363   89.0782   12.6546 C.ar    1  UNL1        0.0360
     22 C          63.0238   87.5874   12.5330 C.ar    1  UNL1        0.0601
     23 C          63.9972   84.0567   13.8183 C.3     1  UNL1        0.1577
     24 C          63.3230   82.7302   13.6285 C.ar    1  UNL1        0.0296
     25 C          62.2225   82.3086   14.5564 C.ar    1  UNL1       -0.0001
     26 C          61.5482   80.9822   14.3667 C.ar    1  UNL1       -0.0001
     27 C          61.9746   80.0774   13.2489 C.ar    1  UNL1        0.0023
     28 C          63.0751   80.4989   12.3209 C.ar    1  UNL1        0.0294
     29 C          63.7493   81.8253   12.5107 C.ar    1  UNL1        0.1380
     30 F          64.8499   82.2469   11.5827 F       1  UNL1       -0.2044
     31 C          59.1957   89.7331    6.2222 C.2     1  UNL1        0.4056
     32 O          60.5185   90.3961    6.4684 O.2     1  UNL1       -0.2261
     33 N          58.7511   88.5985    7.0969 N.am    1  UNL1       -0.2452
     34 H          57.8829   88.1634    6.9352 H       1  UNL1        0.1584
     35 C          58.1932   91.6711    4.8119 C.3     1  UNL1        0.2574
     36 O          58.3175   90.2045    5.1012 O.3     1  UNL1       -0.4304
@<TRIPOS>BOND
     1    35    36    1
     2    36    31    1
     3    31    32    2
     4    31    33   am
     5    33     1    1
     6     1     2   ar
     7     2     3    1
     8     2     4   ar
     9     4     5   ar
    10     5    13    1
    11    13    14   ar
    12    14    15   ar
    13    15    23    1
    14    23    24    1
    15    24    25   ar
    16    25    26   ar
    17    26    27   ar
    18    27    28   ar
    19    28    29   ar
    20    29    30    1
    21    15    16   ar
    22    16    17   ar
    23    17    18   ar
    24    18    19   ar
    25    19    20    1
    26    19    21   ar
    27    21    22   ar
    28     5     6   ar
    29     6     7   ar
    30     7     8    1
    31     7     1   ar
    32    22    13   ar
    33    29    24   ar
    34    22    16   ar
    35    33    34    1
    36     3     9    1
    37     3    10    1
    38     8    11    1
    39     8    12    1
@<TRIPOS>MOLECULE
*****
 36 39 0 0 0
SMALL
GASTEIGER

@<TRIPOS>ATOM
      1 C          63.7653   83.2033   13.3817 C.ar    1  UNL1        0.1160
      2 C          63.3174   83.9479   12.1590 C.ar    1  UNL1        0.1435
      3 N          62.9173   83.1933   10.9259 N.pl3   1  UNL1       -0.3415
      4 N          63.2696   85.4471   12.1693 N.ar    1  UNL1       -0.2093
      5 C          63.6697   86.2017   13.4023 C.ar    1  UNL1        0.1844
      6 N          64.1176   85.4571   14.6251 N.ar    1  UNL1       -0.2093
      7 C          64.1654   83.9579   14.6147 C.ar    1  UNL1        0.1435
      8 N          64.6133   83.2134   15.8374 N.pl3   1  UNL1       -0.3415
      9 H          62.9486   82.2093   10.9191 H       1  UNL1        0.1438
     10 H          62.6233   83.6819   10.1234 H       1  UNL1        0.1438
     11 H          64.8759   83.7088   16.6467 H       1  UNL1        0.1438
     12 H          64.6447   82.2294   15.8307 H       1  UNL1        0.1438
     13 C          63.6219   87.7010   13.4127 C.ar    1  UNL1        0.1396
     14 N          64.1465   88.5923   14.4991 N.ar    1  UNL1       -0.1645
     15 N          63.8900   90.0142   14.0963 N.ar    1  UNL1       -0.2293
     16 C          63.2068   90.0017   12.7609 C.ar    1  UNL1        0.1614
     17 N          62.7143   91.1074   11.8751 N.ar    1  UNL1       -0.2230
     18 C          62.0561   90.7834   10.5668 C.ar    1  UNL1        0.1301
     19 C          61.8904   89.3537   10.1443 C.ar    1  UNL1        0.1594
     20 F          61.2321   89.0297    8.8359 F       1  UNL1       -0.2025
     21 C          62.3830   88.2480   11.0301 C.ar    1  UNL1        0.0360
     22 C          63.0412   88.5720   12.3384 C.ar    1  UNL1        0.0601
     23 C          64.2528   91.2345   14.8895 C.3     1  UNL1        0.1577
     24 C          65.6733   91.7159   14.9175 C.ar    1  UNL1        0.0296
     25 C          66.5772   91.4537   13.7495 C.ar    1  UNL1       -0.0001
     26 C          67.9975   91.9350   13.7775 C.ar    1  UNL1       -0.0001
     27 C          68.5140   92.6785   14.9735 C.ar    1  UNL1        0.0023
     28 C          67.6101   92.9407   16.1415 C.ar    1  UNL1        0.0294
     29 C          66.1898   92.4594   16.1136 C.ar    1  UNL1        0.1380
     30 F          65.2859   92.7216   17.2815 F       1  UNL1       -0.2044
     31 C          62.5953   80.9123   13.7455 C.2     1  UNL1        0.4056
     32 O          61.3297   81.6197   14.1301 O.2     1  UNL1       -0.2261
     33 N          63.8131   81.7041   13.3713 N.am    1  UNL1       -0.2452
     34 H          64.6437   81.2398   13.1189 H       1  UNL1        0.1584
     35 C          62.4707   78.6662   12.4457 C.3     1  UNL1        0.2574
     36 O          62.6431   79.4130   13.7351 O.3     1  UNL1       -0.4304
@<TRIPOS>BOND
     1    35    36    1
     2    36    31    1
     3    31    32    2
     4    31    33   am
     5    33     1    1
     6     1     2   ar
     7     2     3    1
     8     2     4   ar
     9     4     5   ar
    10     5    13    1
    11    13    14   ar
    12    14    15   ar
    13    15    23    1
    14    23    24    1
    15    24    25   ar
    16    25    26   ar
    17    26    27   ar
    18    27    28   ar
    19    28    29   ar
    20    29    30    1
    21    15    16   ar
    22    16    17   ar
    23    17    18   ar
    24    18    19   ar
    25    19    20    1
    26    19    21   ar
    27    21    22   ar
    28     5     6   ar
    29     6     7   ar
    30     7     8    1
    31     7     1   ar
    32    22    13   ar
    33    29    24   ar
    34    22    16   ar
    35    33    34    1
    36     3     9    1
    37     3    10    1
    38     8    11    1
    39     8    12    1
