@<TRIPOS>MOLECULE
*****
 48 53 0 0 0
SMALL
GASTEIGER

@<TRIPOS>ATOM
      1 N          61.1272   87.3577    9.1050 N.am    1  UNL1       -0.2541
      2 C          60.1008   87.1972    8.0231 C.2     1  UNL1        0.2456
      3 O          59.7909   85.8339    7.4795 O.2     1  UNL1       -0.2730
      4 C          59.3842   88.3999    7.4846 C.3     1  UNL1        0.1555
      5 N          59.6941   89.7632    8.0281 N.3     1  UNL1       -0.2883
      6 C          60.7205   89.9237    9.1100 C.3     1  UNL1        0.0932
      7 C          61.4371   88.7210    9.6485 C.3     1  UNL1        0.1390
      8 H          58.8196   90.1403    8.3935 H       1  UNL1        0.1237
      9 C          63.2769   83.7495   10.7203 C.ar    1  UNL1        0.1386
     10 C          62.3488   84.5279   11.6050 C.ar    1  UNL1        0.0382
     11 C          61.6322   85.7307   11.0665 C.ar    1  UNL1        0.0180
     12 C          61.8438   86.1550    9.6434 C.ar    1  UNL1        0.0542
     13 C          62.7719   85.3765    8.7588 C.ar    1  UNL1        0.0180
     14 C          63.4885   84.1738    9.2973 C.ar    1  UNL1        0.0382
     15 O          63.9935   82.5467   11.2588 O.3     1  UNL1       -0.4754
     16 C          63.2465   81.2647   11.4786 C.3     1  UNL1        0.2080
     17 C          63.1303   80.6917   12.8599 C.3     1  UNL1        0.0794
     18 C          61.8937   80.9382   13.6726 C.3     1  UNL1        0.1465
     19 O          61.5707   82.3248   14.1448 O.3     1  UNL1       -0.3488
     20 C          62.2717   82.8912   15.3438 C.3     1  UNL1        0.1716
     21 C          63.2341   85.2457   15.8726 C.ar    1  UNL1        0.1370
     22 C          64.3050   86.2811   15.6958 C.ar    1  UNL1        0.0367
     23 C          65.4842   85.9973   14.8133 C.ar    1  UNL1        0.0031
     24 C          65.5926   84.6781   14.1077 C.ar    1  UNL1       -0.0000
     25 C          64.5218   83.6427   14.2846 C.ar    1  UNL1        0.0012
     26 C          63.3425   83.9265   15.1670 C.ar    1  UNL1        0.0413
     27 C          62.1392   86.6060   17.7964 C.3     1  UNL1        0.2525
     28 O          62.0549   85.5296   16.7552 O.3     1  UNL1       -0.4717
     29 C          62.4636   88.8816   10.7305 C.3     1  UNL1        0.2267
     30 O          62.1102   89.6001   11.9989 O.3     1  UNL1       -0.4736
     31 C          63.1954   90.1446   12.8797 C.ar    1  UNL1        0.1398
     32 C          63.4379   89.5410   14.2313 C.ar    1  UNL1        0.0367
     33 C          64.5231   90.0856   15.1120 C.ar    1  UNL1        0.0001
     34 C          65.3658   91.2338   14.6412 C.ar    1  UNL1       -0.0086
     35 C          65.1233   91.8374   13.2897 C.ar    1  UNL1        0.0469
     36 C          64.0381   91.2928   12.4089 C.ar    1  UNL1        0.0511
     37 N          65.9659   92.9855   12.8189 N.pl3   1  UNL1       -0.3059
     38 C          67.0511   93.5301   13.6996 C.3     1  UNL1        0.0912
     39 C          67.2937   92.9265   15.0513 C.3     1  UNL1        0.0261
     40 C          66.4510   91.7783   15.5221 C.3     1  UNL1        0.0294
     41 C          65.7234   93.5891   11.4673 C.3     1  UNL1        0.1123
     42 C          65.8856   95.0666   11.2656 C.3     1  UNL1        0.1147
     43 N          66.2780   95.6013    9.9202 N.am    1  UNL1       -0.2778
     44 C          65.5163   96.6140    9.1175 C.3     1  UNL1        0.0940
     45 C          66.2685   96.8558    7.8425 C.3     1  UNL1        0.0311
     46 C          67.4952   95.9925    7.8571 C.3     1  UNL1        0.0870
     47 C          67.5010   95.2172    9.1412 C.2     1  UNL1        0.2257
     48 O          68.5463   94.2310    9.5709 O.2     1  UNL1       -0.2749
@<TRIPOS>BOND
     1    27    28    1
     2    28    21    1
     3    21    22   ar
     4    22    23   ar
     5    23    24   ar
     6    24    25   ar
     7    25    26   ar
     8    26    20    1
     9    20    19    1
    10    19    18    1
    11    18    17    1
    12    17    16    1
    13    16    15    1
    14    15     9    1
    15     9    10   ar
    16    10    11   ar
    17    11    12   ar
    18    12     1    1
    19     1     2   am
    20     2     3    2
    21     2     4    1
    22     4     5    1
    23     5     6    1
    24     6     7    1
    25     7    29    1
    26    29    30    1
    27    30    31    1
    28    31    32   ar
    29    32    33   ar
    30    33    34   ar
    31    34    35   ar
    32    35    36   ar
    33    35    37    1
    34    37    41    1
    35    41    42    1
    36    42    43    1
    37    43    44    1
    38    44    45    1
    39    45    46    1
    40    46    47    1
    41    47    48    2
    42    37    38    1
    43    38    39    1
    44    39    40    1
    45    12    13   ar
    46    13    14   ar
    47    26    21   ar
    48    14     9   ar
    49     7     1    1
    50    36    31   ar
    51    47    43   am
    52    40    34    1
    53     5     8    1
@<TRIPOS>MOLECULE
*****
 48 53 0 0 0
SMALL
GASTEIGER

@<TRIPOS>ATOM
      1 N          61.1847   88.4975    9.6921 N.am    1  UNL1       -0.2541
      2 C          60.0528   89.1038    8.9167 C.2     1  UNL1        0.2456
      3 O          59.6757   90.5386    9.1383 O.2     1  UNL1       -0.2730
      4 C          59.2980   88.2753    7.9198 C.3     1  UNL1        0.1555
      5 N          59.6751   86.8405    7.6982 N.3     1  UNL1       -0.2883
      6 C          60.8070   86.2342    8.4736 C.3     1  UNL1        0.0932
      7 C          61.5618   87.0627    9.4705 C.3     1  UNL1        0.1390
      8 H          59.9116   86.7474    6.7104 H       1  UNL1        0.1237
      9 C          63.4491   90.9830   12.6828 C.ar    1  UNL1        0.1386
     10 C          63.7422   91.1205   11.2182 C.ar    1  UNL1        0.0382
     11 C          62.9873   90.2920   10.2213 C.ar    1  UNL1        0.0180
     12 C          61.9395   89.3260   10.6890 C.ar    1  UNL1        0.0542
     13 C          61.6465   89.1885   12.1536 C.ar    1  UNL1        0.0180
     14 C          62.4013   90.0170   13.1505 C.ar    1  UNL1        0.0382
     15 O          64.2039   91.8115   13.6797 O.3     1  UNL1       -0.4754
     16 C          65.3538   91.2134   14.4347 C.3     1  UNL1        0.2080
     17 C          66.6955   91.8836   14.4124 C.3     1  UNL1        0.0794
     18 C          66.8076   93.3479   14.7181 C.3     1  UNL1        0.1465
     19 O          66.7744   94.3514   13.6037 O.3     1  UNL1       -0.3488
     20 C          66.0525   94.0323   12.3283 C.3     1  UNL1        0.1716
     21 C          67.1080   94.7744   10.0733 C.ar    1  UNL1        0.1370
     22 C          67.8856   94.4473    8.8330 C.ar    1  UNL1        0.0367
     23 C          68.3851   93.0511    8.6073 C.ar    1  UNL1        0.0031
     24 C          68.1071   91.9820    9.6219 C.ar    1  UNL1       -0.0000
     25 C          67.3295   92.3090   10.8622 C.ar    1  UNL1        0.0012
     26 C          66.8300   93.7052   11.0879 C.ar    1  UNL1        0.0413
     27 C          65.2288   96.5549    9.8531 C.3     1  UNL1        0.2525
     28 O          66.6085   96.1707   10.2990 O.3     1  UNL1       -0.4717
     29 C          62.6937   86.4563   10.2459 C.3     1  UNL1        0.2267
     30 O          63.4076   85.2502    9.7115 O.3     1  UNL1       -0.4736
     31 C          63.2426   83.9207   10.3863 C.ar    1  UNL1        0.1398
     32 C          63.4790   82.6548    9.6173 C.ar    1  UNL1        0.0367
     33 C          63.3140   81.3254   10.2921 C.ar    1  UNL1        0.0001
     34 C          62.9125   81.2620   11.7360 C.ar    1  UNL1       -0.0086
     35 C          62.6761   82.5279   12.5050 C.ar    1  UNL1        0.0469
     36 C          62.8411   83.8573   11.8302 C.ar    1  UNL1        0.0511
     37 N          62.2746   82.4645   13.9489 N.pl3   1  UNL1       -0.3059
     38 C          62.1096   81.1351   14.6238 C.3     1  UNL1        0.0912
     39 C          62.3461   79.8691   13.8547 C.3     1  UNL1        0.0261
     40 C          62.7475   79.9325   12.4108 C.3     1  UNL1        0.0294
     41 C          62.0381   83.7304   14.7179 C.3     1  UNL1        0.1123
     42 C          63.0791   84.2327   15.6740 C.3     1  UNL1        0.1147
     43 N          63.3861   85.6993   15.7459 N.am    1  UNL1       -0.2778
     44 C          64.2025   86.4786   14.7579 C.3     1  UNL1        0.0940
     45 C          64.2516   87.9049   15.2198 C.3     1  UNL1        0.0311
     46 C          63.4654   88.0071   16.4933 C.3     1  UNL1        0.0870
     47 C          62.9305   86.6439   16.8183 C.2     1  UNL1        0.2257
     48 O          62.0880   86.2879   18.0072 O.2     1  UNL1       -0.2749
@<TRIPOS>BOND
     1    27    28    1
     2    28    21    1
     3    21    22   ar
     4    22    23   ar
     5    23    24   ar
     6    24    25   ar
     7    25    26   ar
     8    26    20    1
     9    20    19    1
    10    19    18    1
    11    18    17    1
    12    17    16    1
    13    16    15    1
    14    15     9    1
    15     9    10   ar
    16    10    11   ar
    17    11    12   ar
    18    12     1    1
    19     1     2   am
    20     2     3    2
    21     2     4    1
    22     4     5    1
    23     5     6    1
    24     6     7    1
    25     7    29    1
    26    29    30    1
    27    30    31    1
    28    31    32   ar
    29    32    33   ar
    30    33    34   ar
    31    34    35   ar
    32    35    36   ar
    33    35    37    1
    34    37    41    1
    35    41    42    1
    36    42    43    1
    37    43    44    1
    38    44    45    1
    39    45    46    1
    40    46    47    1
    41    47    48    2
    42    37    38    1
    43    38    39    1
    44    39    40    1
    45    12    13   ar
    46    13    14   ar
    47    26    21   ar
    48    14     9   ar
    49     7     1    1
    50    36    31   ar
    51    47    43   am
    52    40    34    1
    53     5     8    1
@<TRIPOS>MOLECULE
*****
 48 53 0 0 0
SMALL
GASTEIGER

@<TRIPOS>ATOM
      1 N          62.7850   86.0562   12.1263 N.am    1  UNL1       -0.2541
      2 C          62.9602   84.6157   12.5059 C.2     1  UNL1        0.2456
      3 O          62.3207   83.5392   11.6799 O.2     1  UNL1       -0.2730
      4 C          63.7750   84.2516   13.7116 C.3     1  UNL1        0.1555
      5 N          64.4146   85.3280   14.5375 N.3     1  UNL1       -0.2883
      6 C          64.2393   86.7685   14.1579 C.3     1  UNL1        0.0932
      7 C          63.4245   87.1326   12.9523 C.3     1  UNL1        0.1390
      8 H          65.4177   85.1432   14.5365 H       1  UNL1        0.1237
      9 C          60.3406   87.1485    8.5094 C.ar    1  UNL1        0.1386
     10 C          61.5774   86.3141    8.3547 C.ar    1  UNL1        0.0382
     11 C          62.3922   85.9500    9.5603 C.ar    1  UNL1        0.0180
     12 C          61.9702   86.4203   10.9206 C.ar    1  UNL1        0.0542
     13 C          60.7334   87.2548   11.0754 C.ar    1  UNL1        0.0180
     14 C          59.9186   87.6189    9.8697 C.ar    1  UNL1        0.0382
     15 O          59.5258   87.5126    7.3038 O.3     1  UNL1       -0.4754
     16 C          59.0270   88.9167    7.1318 C.3     1  UNL1        0.2080
     17 C          59.4389   89.7173    5.9320 C.3     1  UNL1        0.0794
     18 C          58.6118   90.8889    5.4922 C.3     1  UNL1        0.1465
     19 O          59.2820   92.1520    5.0388 O.3     1  UNL1       -0.3488
     20 C          59.4027   92.4529    3.5743 C.3     1  UNL1        0.1716
     21 C          60.9475   93.8373    2.0100 C.ar    1  UNL1        0.1370
     22 C          62.2971   94.0843    1.4039 C.ar    1  UNL1        0.0367
     23 C          63.4517   93.1937    1.7558 C.ar    1  UNL1        0.0031
     24 C          63.2566   92.0562    2.7138 C.ar    1  UNL1       -0.0000
     25 C          61.9069   91.8093    3.3200 C.ar    1  UNL1        0.0012
     26 C          60.7524   92.6998    2.9681 C.ar    1  UNL1        0.0413
     27 C          59.2177   94.6981    0.2731 C.3     1  UNL1        0.2525
     28 O          59.7929   94.7280    1.6581 O.3     1  UNL1       -0.4717
     29 C          63.2493   88.5732   12.5726 C.3     1  UNL1        0.2267
     30 O          62.7981   89.5697   13.5989 O.3     1  UNL1       -0.4736
     31 C          63.8069   90.4181   14.3149 C.ar    1  UNL1        0.1398
     32 C          63.6034   90.7670   15.7595 C.ar    1  UNL1        0.0367
     33 C          64.6123   91.6153   16.4754 C.ar    1  UNL1        0.0001
     34 C          65.8245   92.1147   15.7468 C.ar    1  UNL1       -0.0086
     35 C          66.0280   91.7658   14.3022 C.ar    1  UNL1        0.0469
     36 C          65.0192   90.9175   13.5863 C.ar    1  UNL1        0.0511
     37 N          67.2403   92.2653   13.5736 N.pl3   1  UNL1       -0.3059
     38 C          68.2491   93.1136   14.2895 C.3     1  UNL1        0.0912
     39 C          68.0457   93.4625   15.7342 C.3     1  UNL1        0.0261
     40 C          66.8334   92.9631   16.4628 C.3     1  UNL1        0.0294
     41 C          67.4438   91.9164   12.1290 C.3     1  UNL1        0.1123
     42 C          66.5010   92.4461   11.0895 C.3     1  UNL1        0.1147
     43 N          66.8567   93.6792   10.3130 N.am    1  UNL1       -0.2778
     44 C          66.3782   95.0713   10.6012 C.3     1  UNL1        0.0940
     45 C          66.9791   95.9891    9.5782 C.3     1  UNL1        0.0311
     46 C          67.8290   95.1642    8.6577 C.3     1  UNL1        0.0870
     47 C          67.7534   93.7366    9.1118 C.2     1  UNL1        0.2257
     48 O          68.4517   92.5711    8.4764 O.2     1  UNL1       -0.2749
@<TRIPOS>BOND
     1    27    28    1
     2    28    21    1
     3    21    22   ar
     4    22    23   ar
     5    23    24   ar
     6    24    25   ar
     7    25    26   ar
     8    26    20    1
     9    20    19    1
    10    19    18    1
    11    18    17    1
    12    17    16    1
    13    16    15    1
    14    15     9    1
    15     9    10   ar
    16    10    11   ar
    17    11    12   ar
    18    12     1    1
    19     1     2   am
    20     2     3    2
    21     2     4    1
    22     4     5    1
    23     5     6    1
    24     6     7    1
    25     7    29    1
    26    29    30    1
    27    30    31    1
    28    31    32   ar
    29    32    33   ar
    30    33    34   ar
    31    34    35   ar
    32    35    36   ar
    33    35    37    1
    34    37    41    1
    35    41    42    1
    36    42    43    1
    37    43    44    1
    38    44    45    1
    39    45    46    1
    40    46    47    1
    41    47    48    2
    42    37    38    1
    43    38    39    1
    44    39    40    1
    45    12    13   ar
    46    13    14   ar
    47    26    21   ar
    48    14     9   ar
    49     7     1    1
    50    36    31   ar
    51    47    43   am
    52    40    34    1
    53     5     8    1
@<TRIPOS>MOLECULE
*****
 48 53 0 0 0
SMALL
GASTEIGER

@<TRIPOS>ATOM
      1 N          62.2084   85.8472    9.9476 N.am    1  UNL1       -0.2541
      2 C          62.9105   84.7391    9.2200 C.2     1  UNL1        0.2456
      3 O          62.7237   84.5769    7.7405 O.2     1  UNL1       -0.2730
      4 C          63.7994   83.7933    9.9719 C.3     1  UNL1        0.1555
      5 N          63.9861   83.9555   11.4514 N.3     1  UNL1       -0.2883
      6 C          63.2841   85.0636   12.1789 C.3     1  UNL1        0.0932
      7 C          62.3952   86.0094   11.4270 C.3     1  UNL1        0.1390
      8 H          64.9853   84.0862   11.6094 H       1  UNL1        0.1237
      9 C          59.5418   88.6846    7.6919 C.ar    1  UNL1        0.1386
     10 C          60.6556   89.2185    8.5430 C.ar    1  UNL1        0.0382
     11 C          61.5444   88.2727    9.2950 C.ar    1  UNL1        0.0180
     12 C          61.3196   86.7930    9.1957 C.ar    1  UNL1        0.0542
     13 C          60.2059   86.2591    8.3445 C.ar    1  UNL1        0.0180
     14 C          59.3170   87.2049    7.5926 C.ar    1  UNL1        0.0382
     15 O          58.6530   89.6304    6.9400 O.3     1  UNL1       -0.4754
     16 C          59.0547   90.1151    5.5785 C.3     1  UNL1        0.2080
     17 C          58.7459   91.5227    5.1621 C.3     1  UNL1        0.0794
     18 C          59.7235   92.2871    4.3195 C.3     1  UNL1        0.1465
     19 O          59.2524   93.0065    3.0904 O.3     1  UNL1       -0.3488
     20 C          60.0763   92.9694    1.8376 C.3     1  UNL1        0.1716
     21 C          62.6734   92.9771    1.9068 C.ar    1  UNL1        0.1370
     22 C          63.9725   93.7242    1.8411 C.ar    1  UNL1        0.0367
     23 C          63.9734   95.2107    1.6404 C.ar    1  UNL1        0.0031
     24 C          62.6754   95.9501    1.5054 C.ar    1  UNL1       -0.0000
     25 C          61.3763   95.2030    1.5711 C.ar    1  UNL1        0.0012
     26 C          61.3754   93.7165    1.7718 C.ar    1  UNL1        0.0413
     27 C          63.4545   90.8856    3.2355 C.3     1  UNL1        0.2525
     28 O          62.6725   91.4906    2.1075 O.3     1  UNL1       -0.4717
     29 C          61.6931   87.1174   12.1546 C.3     1  UNL1        0.2267
     30 O          62.0569   88.5458   11.8766 O.3     1  UNL1       -0.4736
     31 C          63.1138   89.2240   12.6971 C.ar    1  UNL1        0.1398
     32 C          63.6005   88.5892   13.9660 C.ar    1  UNL1        0.0367
     33 C          64.6573   89.2674   14.7864 C.ar    1  UNL1        0.0001
     34 C          65.2275   90.5803   14.3379 C.ar    1  UNL1       -0.0086
     35 C          64.7408   91.2151   13.0690 C.ar    1  UNL1        0.0469
     36 C          63.6839   90.5369   12.2486 C.ar    1  UNL1        0.0511
     37 N          65.3109   92.5280   12.6205 N.pl3   1  UNL1       -0.3059
     38 C          66.3678   93.2062   13.4409 C.3     1  UNL1        0.0912
     39 C          66.8545   92.5714   14.7099 C.3     1  UNL1        0.0261
     40 C          66.2844   91.2585   15.1584 C.3     1  UNL1        0.0294
     41 C          64.8243   93.1628   11.3516 C.3     1  UNL1        0.1123
     42 C          65.6884   94.1534   10.6291 C.3     1  UNL1        0.1147
     43 N          66.8523   93.6773    9.8113 N.am    1  UNL1       -0.2778
     44 C          67.6142   92.4023   10.0206 C.3     1  UNL1        0.0940
     45 C          68.6914   92.3297    8.9793 C.3     1  UNL1        0.0311
     46 C          68.5953   93.5600    8.1264 C.3     1  UNL1        0.0870
     47 C          67.4587   94.3928    8.6406 C.2     1  UNL1        0.2257
     48 O          67.0076   95.7099    8.0822 O.2     1  UNL1       -0.2749
@<TRIPOS>BOND
     1    27    28    1
     2    28    21    1
     3    21    22   ar
     4    22    23   ar
     5    23    24   ar
     6    24    25   ar
     7    25    26   ar
     8    26    20    1
     9    20    19    1
    10    19    18    1
    11    18    17    1
    12    17    16    1
    13    16    15    1
    14    15     9    1
    15     9    10   ar
    16    10    11   ar
    17    11    12   ar
    18    12     1    1
    19     1     2   am
    20     2     3    2
    21     2     4    1
    22     4     5    1
    23     5     6    1
    24     6     7    1
    25     7    29    1
    26    29    30    1
    27    30    31    1
    28    31    32   ar
    29    32    33   ar
    30    33    34   ar
    31    34    35   ar
    32    35    36   ar
    33    35    37    1
    34    37    41    1
    35    41    42    1
    36    42    43    1
    37    43    44    1
    38    44    45    1
    39    45    46    1
    40    46    47    1
    41    47    48    2
    42    37    38    1
    43    38    39    1
    44    39    40    1
    45    12    13   ar
    46    13    14   ar
    47    26    21   ar
    48    14     9   ar
    49     7     1    1
    50    36    31   ar
    51    47    43   am
    52    40    34    1
    53     5     8    1
