@<TRIPOS>MOLECULE
*****
 41 44 0 0 0
SMALL
GASTEIGER

@<TRIPOS>ATOM
      1 C          62.1267   88.0410   10.2542 C.3     1  UNL1        0.1678
      2 C          62.4186   89.2891   11.0334 C.2     1  UNL1        0.2492
      3 O          62.0450   90.5776   10.3625 O.2     1  UNL1       -0.2727
      4 N          63.0347   89.4189   12.3948 N.am    1  UNL1       -0.2518
      5 C          63.5112   88.3329   13.3133 C.ar    1  UNL1        0.0679
      6 C          64.0651   88.8971   14.5880 C.ar    1  UNL1        0.0162
      7 C          64.5970   87.9770   15.6465 C.ar    1  UNL1        0.0014
      8 C          64.5750   86.4928   15.4304 C.ar    1  UNL1        0.0014
      9 C          64.0210   85.9287   14.1557 C.ar    1  UNL1        0.0162
     10 C          63.4891   86.8488   13.0972 C.ar    1  UNL1        0.0676
     11 N          62.9852   86.0841   11.9092 N.am    1  UNL1       -0.2556
     12 C          63.1032   84.5914   11.9982 C.2     1  UNL1        0.2535
     13 O          62.6286   83.7325   10.8637 O.2     1  UNL1       -0.2726
     14 C          62.3788   86.6146   10.6439 C.3     1  UNL1        0.1067
     15 C          61.9707   85.5824    9.6351 C.3     1  UNL1        0.0242
     16 C          60.0479   88.6088    8.8029 C.2     1  UNL1        0.2371
     17 O          59.2230   88.7656   10.0459 O.2     1  UNL1       -0.2737
     18 N          61.4998   88.2465    8.9071 N.am    1  UNL1       -0.2959
     19 H          62.0412   88.1436    8.0913 H       1  UNL1        0.1499
     20 C          59.4210   88.8143    7.4558 C.3     1  UNL1        0.1316
     21 C          58.6030   87.7210    6.8346 C.3     1  UNL1        0.0270
     22 C          58.6763   90.4978    5.6225 C.3     1  UNL1        0.0862
     23 N          59.6120   90.1129    6.7298 N.3     1  UNL1       -0.2902
     24 H          59.5592   90.8524    7.4304 H       1  UNL1        0.1237
     25 C          63.1958   90.8202   12.9053 C.3     1  UNL1        0.1245
     26 C          64.4519   91.5858   12.6116 C.ar    1  UNL1       -0.0059
     27 C          64.8174   91.9114   11.1938 C.ar    1  UNL1       -0.0242
     28 C          64.4787   91.7655   10.4870 C.3     1  UNL1        0.0308
     29 C          66.0735   92.6770   10.9000 C.ar    1  UNL1       -0.0045
     30 C          66.9639   93.1169   12.0241 C.ar    1  UNL1       -0.0003
     31 C          66.5982   92.7913   13.4420 C.ar    1  UNL1       -0.0003
     32 C          67.4887   93.2313   14.5661 C.ar    1  UNL1       -0.0000
     33 C          67.1230   92.9057   15.9839 C.ar    1  UNL1       -0.0000
     34 C          65.8669   92.1401   16.2777 C.ar    1  UNL1       -0.0000
     35 C          64.9766   91.7001   15.1535 C.ar    1  UNL1       -0.0003
     36 C          65.3422   92.0257   13.7358 C.ar    1  UNL1       -0.0027
     37 C          63.6958   83.9575   13.2218 C.3     1  UNL1        0.2357
     38 S          63.4939   82.4939   13.4808 S.O2    1  UNL1        0.0007
     39 C          63.2919   81.0304   13.7398 C.3     1  UNL1        0.1766
     40 O          64.6759   82.1773   12.6133 O.2     1  UNL1       -0.1725
     41 O          62.3118   82.8105   14.3483 O.2     1  UNL1       -0.1725
@<TRIPOS>BOND
     1    22    23    1
     2    23    20    1
     3    20    21    1
     4    20    16    1
     5    16    17    2
     6    16    18   am
     7     1    18    1
     8     1     2    1
     9     2     3    2
    10     2     4   am
    11     4    25    1
    12    25    26    1
    13    26    27   ar
    14    27    28    1
    15    27    29   ar
    16    29    30   ar
    17    30    31   ar
    18    31    32   ar
    19    32    33   ar
    20    33    34   ar
    21    34    35   ar
    22    35    36   ar
    23     4     5    1
    24     5     6   ar
    25     6     7   ar
    26     7     8   ar
    27     8     9   ar
    28     9    10   ar
    29    10    11    1
    30    11    12   am
    31    12    13    2
    32    12    37    1
    33    37    38    1
    34    38    39    1
    35    38    40    2
    36    38    41    2
    37    11    14    1
    38    14    15    1
    39    14     1    1
    40    36    26   ar
    41    10     5   ar
    42    36    31   ar
    43    23    24    1
    44    18    19    1
@<TRIPOS>MOLECULE
*****
 41 44 0 0 0
SMALL
GASTEIGER

@<TRIPOS>ATOM
      1 C          63.6821   89.9210   11.7716 C.3     1  UNL1        0.1678
      2 C          64.1177   89.1879   13.0056 C.2     1  UNL1        0.2492
      3 O          63.5643   87.8034   13.1697 O.2     1  UNL1       -0.2727
      4 N          65.0336   89.6563   14.0973 N.am    1  UNL1       -0.2518
      5 C          65.7401   90.9734   14.2246 C.ar    1  UNL1        0.0679
      6 C          66.5642   91.0345   15.4764 C.ar    1  UNL1        0.0162
      7 C          67.3534   92.2696   15.7952 C.ar    1  UNL1        0.0014
      8 C          67.3184   93.4436   14.8622 C.ar    1  UNL1        0.0014
      9 C          66.4943   93.3825   13.6104 C.ar    1  UNL1        0.0162
     10 C          65.7051   92.1474   13.2916 C.ar    1  UNL1        0.0676
     11 N          64.9551   92.2942   12.0009 N.am    1  UNL1       -0.2556
     12 C          65.1283   93.6054   11.2930 C.2     1  UNL1        0.2535
     13 O          64.4217   93.8553    9.9937 O.2     1  UNL1       -0.2726
     14 C          64.0547   91.3034   11.3244 C.3     1  UNL1        0.1067
     15 C          63.4467   91.7547   10.0296 C.3     1  UNL1        0.0242
     16 C          61.2935   89.0699   11.2056 C.2     1  UNL1        0.2371
     17 O          60.7678   89.7157   12.4533 O.2     1  UNL1       -0.2737
     18 N          62.7506   89.1726   10.8648 N.am    1  UNL1       -0.2959
     19 H          63.0957   88.7487   10.0459 H       1  UNL1        0.1499
     20 C          60.3621   88.3215   10.2988 C.3     1  UNL1        0.1316
     21 C          59.6276   89.0493    9.2120 C.3     1  UNL1        0.0270
     22 C          61.3505   85.9507   10.6884 C.3     1  UNL1        0.0862
     23 N          60.1651   86.8455   10.4787 N.3     1  UNL1       -0.2902
     24 H          59.5588   86.7261   11.2902 H       1  UNL1        0.1237
     25 C          65.2750   88.6783   15.2087 C.3     1  UNL1        0.1245
     26 C          64.1346   87.8773   15.7638 C.ar    1  UNL1       -0.0059
     27 C          63.0776   88.5495   16.5888 C.ar    1  UNL1       -0.0242
     28 C          62.9573   89.2996   16.8305 C.3     1  UNL1        0.0308
     29 C          61.9372   87.7486   17.1439 C.ar    1  UNL1       -0.0045
     30 C          61.8540   86.2754   16.8740 C.ar    1  UNL1       -0.0003
     31 C          62.9111   85.6032   16.0489 C.ar    1  UNL1       -0.0003
     32 C          62.8278   84.1300   15.7789 C.ar    1  UNL1       -0.0000
     33 C          63.8849   83.4579   14.9539 C.ar    1  UNL1       -0.0000
     34 C          65.0253   84.2588   14.3988 C.ar    1  UNL1       -0.0000
     35 C          65.1084   85.7320   14.6688 C.ar    1  UNL1       -0.0003
     36 C          64.0514   86.4041   15.4938 C.ar    1  UNL1       -0.0027
     37 C          66.0081   94.6666   11.8845 C.3     1  UNL1        0.2357
     38 S          66.5518   95.7608   11.0145 S.O2    1  UNL1        0.0007
     39 C          67.0956   96.8550   10.1444 C.3     1  UNL1        0.1766
     40 O          65.6122   96.7381   11.6564 O.2     1  UNL1       -0.1725
     41 O          67.4914   94.7835   10.3726 O.2     1  UNL1       -0.1725
@<TRIPOS>BOND
     1    22    23    1
     2    23    20    1
     3    20    21    1
     4    20    16    1
     5    16    17    2
     6    16    18   am
     7     1    18    1
     8     1     2    1
     9     2     3    2
    10     2     4   am
    11     4    25    1
    12    25    26    1
    13    26    27   ar
    14    27    28    1
    15    27    29   ar
    16    29    30   ar
    17    30    31   ar
    18    31    32   ar
    19    32    33   ar
    20    33    34   ar
    21    34    35   ar
    22    35    36   ar
    23     4     5    1
    24     5     6   ar
    25     6     7   ar
    26     7     8   ar
    27     8     9   ar
    28     9    10   ar
    29    10    11    1
    30    11    12   am
    31    12    13    2
    32    12    37    1
    33    37    38    1
    34    38    39    1
    35    38    40    2
    36    38    41    2
    37    11    14    1
    38    14    15    1
    39    14     1    1
    40    36    26   ar
    41    10     5   ar
    42    36    31   ar
    43    23    24    1
    44    18    19    1
@<TRIPOS>MOLECULE
*****
 41 44 0 0 0
SMALL
GASTEIGER

@<TRIPOS>ATOM
      1 C          61.4152   94.9888   -4.4073 C.3     1  UNL1        0.1678
      2 C          61.3652   95.1625   -2.9182 C.2     1  UNL1        0.2492
      3 O          62.6260   95.6639   -2.2788 O.2     1  UNL1       -0.2727
      4 N          60.2211   94.9011   -1.9841 N.am    1  UNL1       -0.2518
      5 C          58.8444   94.4014   -2.3082 C.ar    1  UNL1        0.0679
      6 C          58.0012   94.2786   -1.0738 C.ar    1  UNL1        0.0162
      7 C          56.5855   93.7940   -1.1777 C.ar    1  UNL1        0.0014
      8 C          56.0129   93.4323   -2.5161 C.ar    1  UNL1        0.0014
      9 C          56.8561   93.5551   -3.7506 C.ar    1  UNL1        0.0162
     10 C          58.2718   94.0397   -3.6466 C.ar    1  UNL1        0.0676
     11 N          58.9346   94.0883   -4.9914 N.am    1  UNL1       -0.2556
     12 C          58.0861   93.6576   -6.1510 C.2     1  UNL1        0.2535
     13 O          58.6527   93.6687   -7.5399 O.2     1  UNL1       -0.2726
     14 C          60.3335   94.5107   -5.3300 C.3     1  UNL1        0.1067
     15 C          60.6989   94.4465   -6.7834 C.3     1  UNL1        0.0242
     16 C          63.7509   94.2758   -5.2941 C.2     1  UNL1        0.2371
     17 O          63.4781   92.8615   -4.8754 O.2     1  UNL1       -0.2737
     18 N          62.7194   95.3394   -5.0601 N.am    1  UNL1       -0.2959
     19 H          62.8984   96.2677   -5.3349 H       1  UNL1        0.1499
     20 C          65.0551   94.6265   -5.9468 C.3     1  UNL1        0.1316
     21 C          65.9232   93.5443   -6.5172 C.3     1  UNL1        0.0270
     22 C          66.8810   96.3954   -6.4824 C.3     1  UNL1        0.0862
     23 N          65.4912   96.0593   -6.0292 N.3     1  UNL1       -0.2902
     24 H          64.8510   96.5255   -6.6720 H       1  UNL1        0.1237
     25 C          60.4891   95.1757   -0.5340 C.3     1  UNL1        0.1245
     26 C          61.3897   94.2659    0.2477 C.ar    1  UNL1       -0.0059
     27 C          61.0862   92.7992    0.3293 C.ar    1  UNL1       -0.0242
     28 C          60.5097   92.3355    0.0324 C.3     1  UNL1        0.0308
     29 C          61.9868   91.8893    1.1110 C.ar    1  UNL1       -0.0045
     30 C          63.1909   92.4461    1.8111 C.ar    1  UNL1       -0.0003
     31 C          63.4944   93.9129    1.7295 C.ar    1  UNL1       -0.0003
     32 C          64.6984   94.4697    2.4296 C.ar    1  UNL1       -0.0000
     33 C          65.0019   95.9364    2.3480 C.ar    1  UNL1       -0.0000
     34 C          64.1013   96.8463    1.5663 C.ar    1  UNL1       -0.0000
     35 C          62.8972   96.2894    0.8662 C.ar    1  UNL1       -0.0003
     36 C          62.5938   94.8228    0.9478 C.ar    1  UNL1       -0.0027
     37 C          56.6710   93.2159   -5.9218 C.3     1  UNL1        0.2357
     38 S          56.0913   92.1012   -6.7412 S.O2    1  UNL1        0.0007
     39 C          55.5116   90.9865   -7.5605 C.3     1  UNL1        0.1766
     40 O          55.1870   93.0789   -7.4314 O.2     1  UNL1       -0.1725
     41 O          56.9956   91.1236   -6.0510 O.2     1  UNL1       -0.1725
@<TRIPOS>BOND
     1    22    23    1
     2    23    20    1
     3    20    21    1
     4    20    16    1
     5    16    17    2
     6    16    18   am
     7     1    18    1
     8     1     2    1
     9     2     3    2
    10     2     4   am
    11     4    25    1
    12    25    26    1
    13    26    27   ar
    14    27    28    1
    15    27    29   ar
    16    29    30   ar
    17    30    31   ar
    18    31    32   ar
    19    32    33   ar
    20    33    34   ar
    21    34    35   ar
    22    35    36   ar
    23     4     5    1
    24     5     6   ar
    25     6     7   ar
    26     7     8   ar
    27     8     9   ar
    28     9    10   ar
    29    10    11    1
    30    11    12   am
    31    12    13    2
    32    12    37    1
    33    37    38    1
    34    38    39    1
    35    38    40    2
    36    38    41    2
    37    11    14    1
    38    14    15    1
    39    14     1    1
    40    36    26   ar
    41    10     5   ar
    42    36    31   ar
    43    23    24    1
    44    18    19    1
@<TRIPOS>MOLECULE
*****
 41 44 0 0 0
SMALL
GASTEIGER

@<TRIPOS>ATOM
      1 C          62.1772   87.9775   10.6624 C.3     1  UNL1        0.1678
      2 C          62.3216   89.1337   11.6071 C.2     1  UNL1        0.2492
      3 O          61.8782   90.4655   11.0783 O.2     1  UNL1       -0.2727
      4 N          62.8509   89.1341   13.0106 N.am    1  UNL1       -0.2518
      5 C          63.3665   87.9785   13.8161 C.ar    1  UNL1        0.0679
      6 C          63.8023   88.4147   15.1835 C.ar    1  UNL1        0.0162
      7 C          64.3517   87.4095   16.1518 C.ar    1  UNL1        0.0014
      8 C          64.4652   85.9680   15.7527 C.ar    1  UNL1        0.0014
      9 C          64.0294   85.5318   14.3853 C.ar    1  UNL1        0.0162
     10 C          63.4800   86.5370   13.4171 C.ar    1  UNL1        0.0676
     11 N          63.1061   85.8952   12.1139 N.am    1  UNL1       -0.2556
     12 C          63.3434   84.4167   12.0249 C.2     1  UNL1        0.2535
     13 O          63.0037   83.6771   10.7649 O.2     1  UNL1       -0.2726
     14 C          62.5263   86.5362   10.8880 C.3     1  UNL1        0.1067
     15 C          62.2604   85.6141    9.7352 C.3     1  UNL1        0.0242
     16 C          60.1246   88.4373    9.1375 C.2     1  UNL1        0.2371
     17 O          59.2096   88.2401   10.3097 O.2     1  UNL1       -0.2737
     18 N          61.6083   88.3060    9.3139 N.am    1  UNL1       -0.2959
     19 H          62.2089   88.4355    8.5446 H       1  UNL1        0.1499
     20 C          59.5558   88.7658    7.7890 C.3     1  UNL1        0.1316
     21 C          59.7845   90.1213    7.1885 C.3     1  UNL1        0.0270
     22 C          58.8689   86.2892    7.4093 C.3     1  UNL1        0.0862
     23 N          58.7583   87.7390    7.0410 N.3     1  UNL1       -0.2902
     24 H          57.7765   87.9953    7.1455 H       1  UNL1        0.1237
     25 C          62.8668   90.4663   13.6998 C.3     1  UNL1        0.1245
     26 C          64.1649   91.1899   13.9038 C.ar    1  UNL1       -0.0059
     27 C          64.7301   91.3410   15.2849 C.ar    1  UNL1       -0.0242
     28 C          64.4907   91.1109   16.0096 C.3     1  UNL1        0.0308
     29 C          66.0281   92.0646   15.4890 C.ar    1  UNL1       -0.0045
     30 C          66.7609   92.6369   14.3119 C.ar    1  UNL1       -0.0003
     31 C          66.1956   92.4857   12.9307 C.ar    1  UNL1       -0.0003
     32 C          66.9283   93.0580   11.7536 C.ar    1  UNL1       -0.0000
     33 C          66.3630   92.9068   10.3725 C.ar    1  UNL1       -0.0000
     34 C          65.0649   92.1832   10.1684 C.ar    1  UNL1       -0.0000
     35 C          64.3323   91.6110   11.3456 C.ar    1  UNL1       -0.0003
     36 C          64.8975   91.7622   12.7266 C.ar    1  UNL1       -0.0027
     37 C          63.9204   83.6778   13.1959 C.3     1  UNL1        0.2357
     38 S          63.5458   82.2456   13.4375 S.O2    1  UNL1        0.0007
     39 C          63.1713   80.8135   13.6791 C.3     1  UNL1        0.1766
     40 O          62.3442   82.6914   14.2170 O.2     1  UNL1       -0.1725
     41 O          64.7474   81.7999   12.6580 O.2     1  UNL1       -0.1725
@<TRIPOS>BOND
     1    22    23    1
     2    23    20    1
     3    20    21    1
     4    20    16    1
     5    16    17    2
     6    16    18   am
     7     1    18    1
     8     1     2    1
     9     2     3    2
    10     2     4   am
    11     4    25    1
    12    25    26    1
    13    26    27   ar
    14    27    28    1
    15    27    29   ar
    16    29    30   ar
    17    30    31   ar
    18    31    32   ar
    19    32    33   ar
    20    33    34   ar
    21    34    35   ar
    22    35    36   ar
    23     4     5    1
    24     5     6   ar
    25     6     7   ar
    26     7     8   ar
    27     8     9   ar
    28     9    10   ar
    29    10    11    1
    30    11    12   am
    31    12    13    2
    32    12    37    1
    33    37    38    1
    34    38    39    1
    35    38    40    2
    36    38    41    2
    37    11    14    1
    38    14    15    1
    39    14     1    1
    40    36    26   ar
    41    10     5   ar
    42    36    31   ar
    43    23    24    1
    44    18    19    1
@<TRIPOS>MOLECULE
*****
 41 44 0 0 0
SMALL
GASTEIGER

@<TRIPOS>ATOM
      1 C          62.0550   89.0285    9.8503 C.3     1  UNL1        0.1678
      2 C          61.7426   87.6122   10.2332 C.2     1  UNL1        0.2492
      3 O          60.9002   86.8450    9.2577 O.2     1  UNL1       -0.2727
      4 N          62.1613   86.8619   11.4627 N.am    1  UNL1       -0.2518
      5 C          62.9957   87.3424   12.6129 C.ar    1  UNL1        0.0679
      6 C          63.1795   86.2678   13.6432 C.ar    1  UNL1        0.0162
      7 C          63.9852   86.5427   14.8781 C.ar    1  UNL1        0.0014
      8 C          64.6070   87.8923   15.0829 C.ar    1  UNL1        0.0014
      9 C          64.4232   88.9669   14.0527 C.ar    1  UNL1        0.0162
     10 C          63.6175   88.6919   12.8177 C.ar    1  UNL1        0.0676
     11 N          63.5586   89.8943   11.9228 N.am    1  UNL1       -0.2556
     12 C          64.2920   91.1073   12.4134 C.2     1  UNL1        0.2535
     13 O          64.2962   92.3637   11.5940 O.2     1  UNL1       -0.2726
     14 C          62.8632   90.0442   10.6022 C.3     1  UNL1        0.1067
     15 C          62.9932   91.3871    9.9469 C.3     1  UNL1        0.0242
     16 C          60.0242   89.3008    8.2529 C.2     1  UNL1        0.2371
     17 O          59.1359   88.6496    9.2713 O.2     1  UNL1       -0.2737
     18 N          61.4837   89.4902    8.5424 N.am    1  UNL1       -0.2959
     19 H          62.0667   89.9175    7.8740 H       1  UNL1        0.1499
     20 C          59.4529   89.7624    6.9451 C.3     1  UNL1        0.1316
     21 C          58.0637   89.3581    6.5490 C.3     1  UNL1        0.0270
     22 C          59.5971   91.4436    4.9695 C.3     1  UNL1        0.0862
     23 N          60.2707   90.6284    6.0333 N.3     1  UNL1       -0.2902
     24 H          60.7801   91.2827    6.6273 H       1  UNL1        0.1237
     25 C          61.6821   85.4434   11.5541 C.3     1  UNL1        0.1245
     26 C          62.6145   84.3143   11.2286 C.ar    1  UNL1       -0.0059
     27 C          63.3727   84.3173    9.9344 C.ar    1  UNL1       -0.0242
     28 C          63.4084   84.8173    9.3146 C.3     1  UNL1        0.0308
     29 C          64.3050   83.1882    9.6088 C.ar    1  UNL1       -0.0045
     30 C          64.4792   82.0562   10.5775 C.ar    1  UNL1       -0.0003
     31 C          63.7209   82.0533   11.8718 C.ar    1  UNL1       -0.0003
     32 C          63.8950   80.9214   12.8405 C.ar    1  UNL1       -0.0000
     33 C          63.1368   80.9185   14.1347 C.ar    1  UNL1       -0.0000
     34 C          62.2044   82.0476   14.4603 C.ar    1  UNL1       -0.0000
     35 C          62.0304   83.1795   13.4915 C.ar    1  UNL1       -0.0003
     36 C          62.7885   83.1824   12.1974 C.ar    1  UNL1       -0.0027
     37 C          65.0212   91.0640   13.7236 C.3     1  UNL1        0.2357
     38 S          65.9155   92.2004   14.1221 S.O2    1  UNL1        0.0007
     39 C          66.8096   93.3368   14.5206 C.3     1  UNL1        0.1766
     40 O          66.8180   91.8966   12.9631 O.2     1  UNL1       -0.1725
     41 O          65.0129   92.5042   15.2810 O.2     1  UNL1       -0.1725
@<TRIPOS>BOND
     1    22    23    1
     2    23    20    1
     3    20    21    1
     4    20    16    1
     5    16    17    2
     6    16    18   am
     7     1    18    1
     8     1     2    1
     9     2     3    2
    10     2     4   am
    11     4    25    1
    12    25    26    1
    13    26    27   ar
    14    27    28    1
    15    27    29   ar
    16    29    30   ar
    17    30    31   ar
    18    31    32   ar
    19    32    33   ar
    20    33    34   ar
    21    34    35   ar
    22    35    36   ar
    23     4     5    1
    24     5     6   ar
    25     6     7   ar
    26     7     8   ar
    27     8     9   ar
    28     9    10   ar
    29    10    11    1
    30    11    12   am
    31    12    13    2
    32    12    37    1
    33    37    38    1
    34    38    39    1
    35    38    40    2
    36    38    41    2
    37    11    14    1
    38    14    15    1
    39    14     1    1
    40    36    26   ar
    41    10     5   ar
    42    36    31   ar
    43    23    24    1
    44    18    19    1
@<TRIPOS>MOLECULE
*****
 41 44 0 0 0
SMALL
GASTEIGER

@<TRIPOS>ATOM
      1 C          61.6762   87.0979   10.6044 C.3     1  UNL1        0.1678
      2 C          62.0989   85.9697   11.4981 C.2     1  UNL1        0.2492
      3 O          61.5896   84.6114   11.1168 O.2     1  UNL1       -0.2727
      4 N          62.9637   86.0205   12.7227 N.am    1  UNL1       -0.2518
      5 C          63.6193   87.2118   13.3561 C.ar    1  UNL1        0.0679
      6 C          64.4017   86.8230   14.5754 C.ar    1  UNL1        0.0162
      7 C          65.1368   87.8690   15.3597 C.ar    1  UNL1        0.0014
      8 C          65.0896   89.3038   14.9249 C.ar    1  UNL1        0.0014
      9 C          64.3072   89.6926   13.7056 C.ar    1  UNL1        0.0162
     10 C          63.5720   88.6466   12.9212 C.ar    1  UNL1        0.0676
     11 N          62.8575   89.2444   11.7456 N.am    1  UNL1       -0.2556
     12 C          63.0064   90.7277   11.5790 C.2     1  UNL1        0.2535
     13 O          62.3320   91.4255   10.4352 O.2     1  UNL1       -0.2726
     14 C          62.0138   88.5553   10.7145 C.3     1  UNL1        0.1067
     15 C          61.4306   89.4404    9.6532 C.3     1  UNL1        0.0242
     16 C          61.3800   85.9791    8.2783 C.2     1  UNL1        0.2371
     17 O          62.8362   85.6193    8.2659 O.2     1  UNL1       -0.2737
     18 N          60.8000   86.7184    9.4475 N.am    1  UNL1       -0.2959
     19 H          59.8443   86.9545    9.4557 H       1  UNL1        0.1499
     20 C          60.5038   85.5997    7.1215 C.3     1  UNL1        0.1316
     21 C          60.9969   84.6218    6.0963 C.3     1  UNL1        0.0270
     22 C          58.8963   87.6222    7.3954 C.3     1  UNL1        0.0862
     23 N          59.1346   86.1979    6.9897 N.3     1  UNL1       -0.2902
     24 H          58.8746   86.1245    6.0062 H       1  UNL1        0.1237
     25 C          63.2047   84.7061   13.4041 C.3     1  UNL1        0.1245
     26 C          63.3946   83.4619   12.5881 C.ar    1  UNL1       -0.0059
     27 C          64.2924   83.4828   11.3867 C.ar    1  UNL1       -0.0242
     28 C          64.7382   84.0443   11.0381 C.3     1  UNL1        0.0308
     29 C          64.4824   82.2387   10.5706 C.ar    1  UNL1       -0.0045
     30 C          63.7745   80.9736   10.9560 C.ar    1  UNL1       -0.0003
     31 C          62.8767   80.9527   12.1574 C.ar    1  UNL1       -0.0003
     32 C          62.1688   79.6876   12.5428 C.ar    1  UNL1       -0.0000
     33 C          61.2710   79.6668   13.7443 C.ar    1  UNL1       -0.0000
     34 C          61.0811   80.9110   14.5604 C.ar    1  UNL1       -0.0000
     35 C          61.7890   82.1760   14.1749 C.ar    1  UNL1       -0.0003
     36 C          62.6867   82.1969   12.9735 C.ar    1  UNL1       -0.0027
     37 C          63.8298   91.5133   12.5563 C.3     1  UNL1        0.2357
     38 S          65.0110   92.3037   12.0769 S.O2    1  UNL1        0.0007
     39 C          66.1922   93.0941   11.5974 C.3     1  UNL1        0.1766
     40 O          65.2366   92.8116   13.4701 O.2     1  UNL1       -0.1725
     41 O          64.7853   91.7957   10.6837 O.2     1  UNL1       -0.1725
@<TRIPOS>BOND
     1    22    23    1
     2    23    20    1
     3    20    21    1
     4    20    16    1
     5    16    17    2
     6    16    18   am
     7     1    18    1
     8     1     2    1
     9     2     3    2
    10     2     4   am
    11     4    25    1
    12    25    26    1
    13    26    27   ar
    14    27    28    1
    15    27    29   ar
    16    29    30   ar
    17    30    31   ar
    18    31    32   ar
    19    32    33   ar
    20    33    34   ar
    21    34    35   ar
    22    35    36   ar
    23     4     5    1
    24     5     6   ar
    25     6     7   ar
    26     7     8   ar
    27     8     9   ar
    28     9    10   ar
    29    10    11    1
    30    11    12   am
    31    12    13    2
    32    12    37    1
    33    37    38    1
    34    38    39    1
    35    38    40    2
    36    38    41    2
    37    11    14    1
    38    14    15    1
    39    14     1    1
    40    36    26   ar
    41    10     5   ar
    42    36    31   ar
    43    23    24    1
    44    18    19    1
@<TRIPOS>MOLECULE
*****
 41 44 0 0 0
SMALL
GASTEIGER

@<TRIPOS>ATOM
      1 C          61.8760   95.6095   -2.3317 C.3     1  UNL1        0.1678
      2 C          61.6055   95.3512   -0.8791 C.2     1  UNL1        0.2492
      3 O          62.6218   95.8973    0.0794 O.2     1  UNL1       -0.2727
      4 N          60.4529   94.6190   -0.2583 N.am    1  UNL1       -0.2518
      5 C          59.2862   93.9642   -0.9367 C.ar    1  UNL1        0.0679
      6 C          58.3538   93.3393    0.0583 C.ar    1  UNL1        0.0162
      7 C          57.1191   92.6301   -0.4136 C.ar    1  UNL1        0.0014
      8 C          56.8169   92.5459   -1.8804 C.ar    1  UNL1        0.0014
      9 C          57.7493   93.1709   -2.8753 C.ar    1  UNL1        0.0162
     10 C          58.9840   93.8800   -2.4035 C.ar    1  UNL1        0.0676
     11 N          59.7738   94.4298   -3.5541 N.am    1  UNL1       -0.2556
     12 C          59.2007   94.1763   -4.9170 C.2     1  UNL1        0.2535
     13 O          59.9123   94.6837   -6.1361 O.2     1  UNL1       -0.2726
     14 C          61.0608   95.1995   -3.5223 C.3     1  UNL1        0.1067
     15 C          61.6046   95.6139   -4.8573 C.3     1  UNL1        0.0242
     16 C          64.3991   95.6503   -2.9498 C.2     1  UNL1        0.2371
     17 O          64.4200   94.1505   -2.9639 O.2     1  UNL1       -0.2737
     18 N          63.1272   96.3798   -2.6337 N.am    1  UNL1       -0.2959
     19 H          63.1135   97.3642   -2.6245 H       1  UNL1        0.1499
     20 C          65.6503   96.4206   -3.2518 C.3     1  UNL1        0.1316
     21 C          65.9763   96.7968   -4.6669 C.3     1  UNL1        0.0270
     22 C          66.2409   96.4534   -0.7220 C.3     1  UNL1        0.0862
     23 N          66.5755   96.8147   -2.1389 N.3     1  UNL1       -0.2902
     24 H          67.4806   96.3918   -2.3447 H       1  UNL1        0.1237
     25 C          60.4691   94.5297    1.2390 C.3     1  UNL1        0.1245
     26 C          61.2990   93.4813    1.9189 C.ar    1  UNL1       -0.0059
     27 C          62.6974   93.2104    1.4487 C.ar    1  UNL1       -0.0242
     28 C          63.1560   93.5132    0.8714 C.3     1  UNL1        0.0308
     29 C          63.5273   92.1620    2.1286 C.ar    1  UNL1       -0.0045
     30 C          62.9588   91.3846    3.2786 C.ar    1  UNL1       -0.0003
     31 C          61.5603   91.6555    3.7487 C.ar    1  UNL1       -0.0003
     32 C          60.9918   90.8781    4.8987 C.ar    1  UNL1       -0.0000
     33 C          59.5934   91.1491    5.3687 C.ar    1  UNL1       -0.0000
     34 C          58.7635   92.1975    4.6888 C.ar    1  UNL1       -0.0000
     35 C          59.3321   92.9748    3.5389 C.ar    1  UNL1       -0.0003
     36 C          60.7304   92.7039    3.0688 C.ar    1  UNL1       -0.0027
     37 C          57.9160   93.4154   -5.0608 C.3     1  UNL1        0.2357
     38 S          57.0785   93.5839   -6.2937 S.O2    1  UNL1        0.0007
     39 C          56.2411   93.7524   -7.5267 C.3     1  UNL1        0.1766
     40 O          56.6051   94.9152   -5.7902 O.2     1  UNL1       -0.1725
     41 O          57.5519   92.2526   -6.7972 O.2     1  UNL1       -0.1725
@<TRIPOS>BOND
     1    22    23    1
     2    23    20    1
     3    20    21    1
     4    20    16    1
     5    16    17    2
     6    16    18   am
     7     1    18    1
     8     1     2    1
     9     2     3    2
    10     2     4   am
    11     4    25    1
    12    25    26    1
    13    26    27   ar
    14    27    28    1
    15    27    29   ar
    16    29    30   ar
    17    30    31   ar
    18    31    32   ar
    19    32    33   ar
    20    33    34   ar
    21    34    35   ar
    22    35    36   ar
    23     4     5    1
    24     5     6   ar
    25     6     7   ar
    26     7     8   ar
    27     8     9   ar
    28     9    10   ar
    29    10    11    1
    30    11    12   am
    31    12    13    2
    32    12    37    1
    33    37    38    1
    34    38    39    1
    35    38    40    2
    36    38    41    2
    37    11    14    1
    38    14    15    1
    39    14     1    1
    40    36    26   ar
    41    10     5   ar
    42    36    31   ar
    43    23    24    1
    44    18    19    1
@<TRIPOS>MOLECULE
*****
 41 44 0 0 0
SMALL
GASTEIGER

@<TRIPOS>ATOM
      1 C          62.4338   88.5598   12.5735 C.3     1  UNL1        0.1678
      2 C          63.1273   87.2330   12.6675 C.2     1  UNL1        0.2492
      3 O          63.9155   86.9980   13.9218 O.2     1  UNL1       -0.2727
      4 N          63.1367   86.1102   11.6729 N.am    1  UNL1       -0.2518
      5 C          62.4551   86.0368   10.3387 C.ar    1  UNL1        0.0679
      6 C          62.7234   84.7276    9.6575 C.ar    1  UNL1        0.0162
      7 C          62.1322   84.4498    8.3072 C.ar    1  UNL1        0.0014
      8 C          61.2727   85.4811    7.6382 C.ar    1  UNL1        0.0014
      9 C          61.0044   86.7903    8.3193 C.ar    1  UNL1        0.0162
     10 C          61.5956   87.0682    9.6696 C.ar    1  UNL1        0.0676
     11 N          61.2055   88.4276   10.1695 N.am    1  UNL1       -0.2556
     12 C          60.3261   89.2291    9.2562 C.2     1  UNL1        0.2535
     13 O          59.8782   90.6024    9.6609 O.2     1  UNL1       -0.2726
     14 C          61.5785   89.0915   11.4618 C.3     1  UNL1        0.1067
     15 C          61.0228   90.4690   11.6700 C.3     1  UNL1        0.0242
     16 C          63.8940   90.2541   13.8953 C.2     1  UNL1        0.2371
     17 O          64.9813   90.1159   12.8712 O.2     1  UNL1       -0.2737
     18 N          62.6203   89.4761   13.7464 N.am    1  UNL1       -0.2959
     19 H          61.9066   89.5668   14.4185 H       1  UNL1        0.1499
     20 C          64.0804   91.1704   15.0681 C.3     1  UNL1        0.1316
     21 C          63.3877   90.8778   16.3661 C.3     1  UNL1        0.0270
     22 C          66.2971   92.4074   15.6215 C.3     1  UNL1        0.0862
     23 N          64.9595   92.3793   14.9431 N.3     1  UNL1       -0.2902
     24 H          65.1316   92.5166   13.9472 H       1  UNL1        0.1237
     25 C          63.9332   84.9009   12.0642 C.3     1  UNL1        0.1245
     26 C          63.2710   83.7714   12.7963 C.ar    1  UNL1       -0.0059
     27 C          62.7320   83.9879   14.1792 C.ar    1  UNL1       -0.0242
     28 C          62.7063   84.6140   14.6719 C.3     1  UNL1        0.0308
     29 C          62.0699   82.8584   14.9114 C.ar    1  UNL1       -0.0045
     30 C          61.9468   81.5126   14.2606 C.ar    1  UNL1       -0.0003
     31 C          62.4859   81.2961   12.8776 C.ar    1  UNL1       -0.0003
     32 C          62.3628   79.9503   12.2268 C.ar    1  UNL1       -0.0000
     33 C          62.9019   79.7339   10.8438 C.ar    1  UNL1       -0.0000
     34 C          63.5640   80.8633   10.1116 C.ar    1  UNL1       -0.0000
     35 C          63.6870   82.2091   10.7625 C.ar    1  UNL1       -0.0003
     36 C          63.1480   82.4256   12.1454 C.ar    1  UNL1       -0.0027
     37 C          59.8946   88.6576    7.9381 C.3     1  UNL1        0.2357
     38 S          59.2874   89.5499    6.8965 S.O2    1  UNL1        0.0007
     39 C          58.6803   90.4422    5.8548 C.3     1  UNL1        0.1766
     40 O          57.9833   88.8212    7.0324 O.2     1  UNL1       -0.1725
     41 O          60.5915   90.2785    6.7606 O.2     1  UNL1       -0.1725
@<TRIPOS>BOND
     1    22    23    1
     2    23    20    1
     3    20    21    1
     4    20    16    1
     5    16    17    2
     6    16    18   am
     7     1    18    1
     8     1     2    1
     9     2     3    2
    10     2     4   am
    11     4    25    1
    12    25    26    1
    13    26    27   ar
    14    27    28    1
    15    27    29   ar
    16    29    30   ar
    17    30    31   ar
    18    31    32   ar
    19    32    33   ar
    20    33    34   ar
    21    34    35   ar
    22    35    36   ar
    23     4     5    1
    24     5     6   ar
    25     6     7   ar
    26     7     8   ar
    27     8     9   ar
    28     9    10   ar
    29    10    11    1
    30    11    12   am
    31    12    13    2
    32    12    37    1
    33    37    38    1
    34    38    39    1
    35    38    40    2
    36    38    41    2
    37    11    14    1
    38    14    15    1
    39    14     1    1
    40    36    26   ar
    41    10     5   ar
    42    36    31   ar
    43    23    24    1
    44    18    19    1
