@<TRIPOS>MOLECULE
*****
 30 32 0 0 0
SMALL
GASTEIGER

@<TRIPOS>ATOM
      1 C          64.0162   89.1761   13.4335 C.3     1  UNL1        0.0096
      2 C          63.7332   89.2547   14.9044 C.3     1  UNL1        0.0780
      3 C          63.4503   89.3333   16.3754 C.3     1  UNL1        0.0096
      4 C          63.6112   87.7608   14.9608 C.2     1  UNL1        0.2254
      5 O          63.2581   87.0853   16.2527 O.2     1  UNL1       -0.2748
      6 N          63.8422   86.9423   13.7251 N.am    1  UNL1       -0.2876
      7 H          64.0739   87.3857   12.8772 H       1  UNL1        0.1545
      8 C          63.7201   85.4483   13.7814 C.2     1  UNL1        0.0245
      9 C          62.9704   84.7161   12.7082 C.2     1  UNL1        0.0011
     10 C          62.8484   83.2221   12.7645 C.3     1  UNL1        0.0284
     11 C          63.4760   82.4604   13.8940 C.3     1  UNL1        0.0051
     12 C          64.2256   83.1926   14.9673 C.3     1  UNL1        0.0063
     13 C          64.3477   84.6865   14.9110 C.3     1  UNL1        0.0409
     14 C          62.3428   85.4778   11.5786 C.2     1  UNL1        0.0698
     15 O          62.6994   85.1451   10.1601 O.co2   1  UNL1       -0.5449
     16 O          61.3587   86.5722   11.8676 O.co2   1  UNL1       -0.5449
     17 C          63.8553   90.7486   14.8481 C.3     1  UNL1        0.0966
     18 C          65.0160   91.3801   14.1380 C.ar    1  UNL1        0.2371
     19 N          64.9303   92.3329   12.9827 N.ar    1  UNL1       -0.1895
     20 C          66.3274   92.7112   12.5892 C.ar    1  UNL1        0.2210
     21 N          67.2766   91.9922   13.5014 N.ar    1  UNL1       -0.0544
     22 O          66.4662   91.1695   14.4586 O.2     1  UNL1       -0.3370
     23 C          66.7085   93.6448   11.4786 C.ar    1  UNL1        0.1205
     24 C          66.2205   95.0631   11.4903 C.ar    1  UNL1        0.0255
     25 C          66.6015   95.9965   10.3798 C.ar    1  UNL1        0.0399
     26 C          67.4706   95.5116    9.2574 C.ar    1  UNL1        0.1528
     27 O          67.8517   96.4451    8.1468 O.3     1  UNL1       -0.5039
     28 C          67.9586   94.0933    9.2457 C.ar    1  UNL1        0.1354
     29 N          67.5775   93.1599   10.3563 N.ar    1  UNL1       -0.2375
     30 H          67.5468   97.3311    8.1541 H       1  UNL1        0.2923
@<TRIPOS>UNITY_ATOM_ATTR
15 1
charge -1
@<TRIPOS>BOND
     1     1     2    1
     2     2     3    1
     3     2    17    1
     4    17    18    1
     5    18    19   ar
     6    19    20   ar
     7    20    23    1
     8    23    24   ar
     9    24    25   ar
    10    25    26   ar
    11    26    27    1
    12    26    28   ar
    13    28    29   ar
    14    20    21   ar
    15    21    22   ar
    16     2     4    1
    17     4     5    2
    18     4     6   am
    19     6     8    1
    20     8     9    2
    21     9    14    1
    22    14    15   ar
    23    14    16   ar
    24     9    10    1
    25    10    11    1
    26    11    12    1
    27    12    13    1
    28    22    18   ar
    29    13     8    1
    30    29    23   ar
    31    27    30    1
    32     6     7    1
@<TRIPOS>MOLECULE
*****
 30 32 0 0 0
SMALL
GASTEIGER

@<TRIPOS>ATOM
      1 C          64.5312   88.1701   14.3604 C.3     1  UNL1        0.0096
      2 C          64.0566   89.3890   13.6263 C.3     1  UNL1        0.0780
      3 C          63.5821   90.6080   12.8922 C.3     1  UNL1        0.0096
      4 C          63.3026   88.5173   12.6662 C.2     1  UNL1        0.2254
      5 O          63.2299   87.0368   12.8958 O.2     1  UNL1       -0.2748
      6 N          62.6214   89.1262   11.4766 N.am    1  UNL1       -0.2876
      7 H          62.6692   90.0979   11.3259 H       1  UNL1        0.1545
      8 C          61.8674   88.2545   10.5165 C.2     1  UNL1        0.0245
      9 C          60.3734   88.3540   10.4277 C.2     1  UNL1        0.0011
     10 C          59.6194   87.4823    9.4677 C.3     1  UNL1        0.0284
     11 C          60.3595   86.5111    8.5964 C.3     1  UNL1        0.0051
     12 C          61.8536   86.4116    8.6852 C.3     1  UNL1        0.0063
     13 C          62.6075   87.2833    9.6453 C.3     1  UNL1        0.0409
     14 C          59.6332   89.3251   11.2990 C.2     1  UNL1        0.0698
     15 O          59.0588   88.8712   12.6082 O.co2   1  UNL1       -0.5449
     16 O          59.4676   90.7501   10.8611 O.co2   1  UNL1       -0.5449
     17 C          64.8106   90.2607   14.5863 C.3     1  UNL1        0.0966
     18 C          65.3386   91.5905   14.1360 C.ar    1  UNL1        0.2371
     19 N          65.6524   91.9818   12.7223 N.ar    1  UNL1       -0.1895
     20 C          66.1532   93.3956   12.7329 C.ar    1  UNL1        0.2210
     21 N          66.1491   93.8782   14.1532 N.ar    1  UNL1       -0.0544
     22 O          65.6456   92.7626   15.0203 O.2     1  UNL1       -0.3370
     23 C          66.5829   94.1878   11.5338 C.ar    1  UNL1        0.1205
     24 C          66.1910   95.6302   11.4081 C.ar    1  UNL1        0.0255
     25 C          66.6207   96.4224   10.2090 C.ar    1  UNL1        0.0399
     26 C          67.4422   95.7721    9.1356 C.ar    1  UNL1        0.1528
     27 O          67.8719   96.5643    7.9365 O.3     1  UNL1       -0.5039
     28 C          67.8341   94.3297    9.2613 C.ar    1  UNL1        0.1354
     29 N          67.4045   93.5376   10.4603 N.ar    1  UNL1       -0.2375
     30 H          67.6271   97.4654    7.8580 H       1  UNL1        0.2923
@<TRIPOS>UNITY_ATOM_ATTR
15 1
charge -1
@<TRIPOS>BOND
     1     1     2    1
     2     2     3    1
     3     2    17    1
     4    17    18    1
     5    18    19   ar
     6    19    20   ar
     7    20    23    1
     8    23    24   ar
     9    24    25   ar
    10    25    26   ar
    11    26    27    1
    12    26    28   ar
    13    28    29   ar
    14    20    21   ar
    15    21    22   ar
    16     2     4    1
    17     4     5    2
    18     4     6   am
    19     6     8    1
    20     8     9    2
    21     9    14    1
    22    14    15   ar
    23    14    16   ar
    24     9    10    1
    25    10    11    1
    26    11    12    1
    27    12    13    1
    28    22    18   ar
    29    13     8    1
    30    29    23   ar
    31    27    30    1
    32     6     7    1
@<TRIPOS>MOLECULE
*****
 30 32 0 0 0
SMALL
GASTEIGER

@<TRIPOS>ATOM
      1 C          62.8441   90.1669   12.9386 C.3     1  UNL1        0.0096
      2 C          63.2659   90.7938   11.6428 C.3     1  UNL1        0.0780
      3 C          63.6877   91.4207   10.3470 C.3     1  UNL1        0.0096
      4 C          64.4043   91.4749   12.3428 C.2     1  UNL1        0.2254
      5 O          64.9714   92.7482   11.7888 O.2     1  UNL1       -0.2748
      6 N          64.9757   90.8826   13.5969 N.am    1  UNL1       -0.2876
      7 H          64.6034   90.0468   13.9606 H       1  UNL1        0.1545
      8 C          66.1142   91.5636   14.2970 C.2     1  UNL1        0.0245
      9 C          65.9109   92.1529   15.6614 C.2     1  UNL1        0.0011
     10 C          67.0493   92.8339   16.3614 C.3     1  UNL1        0.0284
     11 C          68.3911   92.9257   15.6971 C.3     1  UNL1        0.0051
     12 C          68.5944   92.3364   14.3328 C.3     1  UNL1        0.0063
     13 C          67.4559   91.6554   13.6327 C.3     1  UNL1        0.0409
     14 C          64.5691   92.0611   16.3257 C.2     1  UNL1        0.0698
     15 O          63.7204   90.8390   16.1361 O.co2   1  UNL1       -0.5449
     16 O          64.0762   93.1915   17.1796 O.co2   1  UNL1       -0.5449
     17 C          62.1274   90.1127   10.9428 C.3     1  UNL1        0.0966
     18 C          62.1235   88.6201   10.7944 C.ar    1  UNL1        0.2371
     19 N          62.5155   87.6281   11.8490 N.ar    1  UNL1       -0.1895
     20 C          62.3611   86.2524   11.2717 C.ar    1  UNL1        0.2210
     21 N          61.8736   86.3940    9.8602 N.ar    1  UNL1       -0.0544
     22 O          61.7267   87.8573    9.5652 O.2     1  UNL1       -0.3370
     23 C          62.6444   84.9615   11.9813 C.ar    1  UNL1        0.1205
     24 C          63.1150   83.7669   11.2057 C.ar    1  UNL1        0.0255
     25 C          63.3983   82.4761   11.9153 C.ar    1  UNL1        0.0399
     26 C          63.2111   82.3799   13.4005 C.ar    1  UNL1        0.1528
     27 O          63.4944   81.0890   14.1100 O.3     1  UNL1       -0.5039
     28 C          62.7405   83.5745   14.1760 C.ar    1  UNL1        0.1354
     29 N          62.4572   84.8652   13.4664 N.ar    1  UNL1       -0.2375
     30 H          63.7883   80.3428   13.6255 H       1  UNL1        0.2923
@<TRIPOS>UNITY_ATOM_ATTR
15 1
charge -1
@<TRIPOS>BOND
     1     1     2    1
     2     2     3    1
     3     2    17    1
     4    17    18    1
     5    18    19   ar
     6    19    20   ar
     7    20    23    1
     8    23    24   ar
     9    24    25   ar
    10    25    26   ar
    11    26    27    1
    12    26    28   ar
    13    28    29   ar
    14    20    21   ar
    15    21    22   ar
    16     2     4    1
    17     4     5    2
    18     4     6   am
    19     6     8    1
    20     8     9    2
    21     9    14    1
    22    14    15   ar
    23    14    16   ar
    24     9    10    1
    25    10    11    1
    26    11    12    1
    27    12    13    1
    28    22    18   ar
    29    13     8    1
    30    29    23   ar
    31    27    30    1
    32     6     7    1
@<TRIPOS>MOLECULE
*****
 30 32 0 0 0
SMALL
GASTEIGER

@<TRIPOS>ATOM
      1 C          62.4778   90.9188   12.6161 C.3     1  UNL1        0.0096
      2 C          63.0357   89.5284   12.6902 C.3     1  UNL1        0.0780
      3 C          63.5936   88.1380   12.7643 C.3     1  UNL1        0.0096
      4 C          61.9997   89.0605   11.7116 C.2     1  UNL1        0.2254
      5 O          60.5434   89.1534   12.0593 O.2     1  UNL1       -0.2748
      6 N          62.4198   88.4998   10.3853 N.am    1  UNL1       -0.2876
      7 H          63.3756   88.4389   10.1572 H       1  UNL1        0.1545
      8 C          61.3837   88.0319    9.4066 C.2     1  UNL1        0.0245
      9 C          61.3173   86.5842    9.0196 C.2     1  UNL1        0.0011
     10 C          60.2813   86.1164    8.0409 C.3     1  UNL1        0.0284
     11 C          59.3117   87.0962    7.4494 C.3     1  UNL1        0.0051
     12 C          59.3781   88.5438    7.8365 C.3     1  UNL1        0.0063
     13 C          60.4142   89.0117    8.8151 C.3     1  UNL1        0.0409
     14 C          62.2869   85.6044    9.6111 C.2     1  UNL1        0.0698
     15 O          63.2719   84.8977    8.7278 O.co2   1  UNL1       -0.5449
     16 O          62.2714   85.3314   11.0859 O.co2   1  UNL1       -0.5449
     17 C          64.0717   89.9963   13.6688 C.3     1  UNL1        0.0966
     18 C          64.7941   91.2900   13.4351 C.ar    1  UNL1        0.2371
     19 N          65.1465   91.8742   12.0993 N.ar    1  UNL1       -0.1895
     20 C          65.8611   93.1718   12.3348 C.ar    1  UNL1        0.2210
     21 N          65.9503   93.3896   13.8162 N.ar    1  UNL1       -0.0544
     22 O          65.2909   92.2266   14.4963 O.2     1  UNL1       -0.3370
     23 C          66.3931   94.0905   11.2750 C.ar    1  UNL1        0.1205
     24 C          66.1018   95.5604   11.3413 C.ar    1  UNL1        0.0255
     25 C          66.6338   96.4789   10.2815 C.ar    1  UNL1        0.0399
     26 C          67.4571   95.9276    9.1554 C.ar    1  UNL1        0.1528
     27 O          67.9890   96.8462    8.0956 O.3     1  UNL1       -0.5039
     28 C          67.7484   94.4577    9.0890 C.ar    1  UNL1        0.1354
     29 N          67.2164   93.5391   10.1488 N.ar    1  UNL1       -0.2375
     30 H          67.8071   97.7644    8.1370 H       1  UNL1        0.2923
@<TRIPOS>UNITY_ATOM_ATTR
15 1
charge -1
@<TRIPOS>BOND
     1     1     2    1
     2     2     3    1
     3     2    17    1
     4    17    18    1
     5    18    19   ar
     6    19    20   ar
     7    20    23    1
     8    23    24   ar
     9    24    25   ar
    10    25    26   ar
    11    26    27    1
    12    26    28   ar
    13    28    29   ar
    14    20    21   ar
    15    21    22   ar
    16     2     4    1
    17     4     5    2
    18     4     6   am
    19     6     8    1
    20     8     9    2
    21     9    14    1
    22    14    15   ar
    23    14    16   ar
    24     9    10    1
    25    10    11    1
    26    11    12    1
    27    12    13    1
    28    22    18   ar
    29    13     8    1
    30    29    23   ar
    31    27    30    1
    32     6     7    1
@<TRIPOS>MOLECULE
*****
 30 32 0 0 0
SMALL
GASTEIGER

@<TRIPOS>ATOM
      1 C          66.6008   91.5976   14.5788 C.3     1  UNL1        0.0096
      2 C          65.3431   91.6208   13.7617 C.3     1  UNL1        0.0780
      3 C          64.0853   91.6440   12.9446 C.3     1  UNL1        0.0096
      4 C          65.9150   92.7170   12.9125 C.2     1  UNL1        0.2254
      5 O          66.8236   93.7424   13.5232 O.2     1  UNL1       -0.2748
      6 N          65.5783   92.7878   11.4525 N.am    1  UNL1       -0.2876
      7 H          64.9819   92.1148   11.0516 H       1  UNL1        0.1545
      8 C          66.1502   93.8841   10.6031 C.2     1  UNL1        0.0245
      9 C          67.4098   93.6490    9.8234 C.2     1  UNL1        0.0011
     10 C          67.9817   94.7452    8.9741 C.3     1  UNL1        0.0284
     11 C          67.2940   96.0765    8.9046 C.3     1  UNL1        0.0051
     12 C          66.0343   96.3115    9.6844 C.3     1  UNL1        0.0063
     13 C          65.4625   95.2153   10.5337 C.3     1  UNL1        0.0409
     14 C          68.0976   92.3178    9.8928 C.2     1  UNL1        0.0698
     15 O          68.3457   91.5353    8.6374 O.co2   1  UNL1       -0.5449
     16 O          68.5372   91.7690   11.2178 O.co2   1  UNL1       -0.5449
     17 C          64.7711   90.5246   14.6109 C.3     1  UNL1        0.0966
     18 C          64.2604   89.2683   13.9700 C.ar    1  UNL1        0.2371
     19 N          64.3970   87.8795   14.5201 N.ar    1  UNL1       -0.1895
     20 C          63.7444   86.9330   13.5565 C.ar    1  UNL1        0.2210
     21 N          63.2045   87.7369   12.4110 N.ar    1  UNL1       -0.0544
     22 O          63.5234   89.1802   12.6665 O.2     1  UNL1       -0.3370
     23 C          63.6485   85.4441   13.7114 C.ar    1  UNL1        0.1205
     24 C          63.0439   84.6138   12.6182 C.ar    1  UNL1        0.0255
     25 C          62.9481   83.1249   12.7731 C.ar    1  UNL1        0.0399
     26 C          63.4568   82.4663   14.0211 C.ar    1  UNL1        0.1528
     27 O          63.3610   80.9774   14.1759 O.3     1  UNL1       -0.5039
     28 C          64.0614   83.2967   15.1142 C.ar    1  UNL1        0.1354
     29 N          64.1573   84.7855   14.9593 N.ar    1  UNL1       -0.2375
     30 H          62.9833   80.4587   13.4930 H       1  UNL1        0.2923
@<TRIPOS>UNITY_ATOM_ATTR
15 1
charge -1
@<TRIPOS>BOND
     1     1     2    1
     2     2     3    1
     3     2    17    1
     4    17    18    1
     5    18    19   ar
     6    19    20   ar
     7    20    23    1
     8    23    24   ar
     9    24    25   ar
    10    25    26   ar
    11    26    27    1
    12    26    28   ar
    13    28    29   ar
    14    20    21   ar
    15    21    22   ar
    16     2     4    1
    17     4     5    2
    18     4     6   am
    19     6     8    1
    20     8     9    2
    21     9    14    1
    22    14    15   ar
    23    14    16   ar
    24     9    10    1
    25    10    11    1
    26    11    12    1
    27    12    13    1
    28    22    18   ar
    29    13     8    1
    30    29    23   ar
    31    27    30    1
    32     6     7    1
@<TRIPOS>MOLECULE
*****
 30 32 0 0 0
SMALL
GASTEIGER

@<TRIPOS>ATOM
      1 C          64.0591   91.6737   12.4050 C.3     1  UNL1        0.0096
      2 C          65.2603   91.6485   13.3030 C.3     1  UNL1        0.0780
      3 C          66.4615   91.6232   14.2010 C.3     1  UNL1        0.0096
      4 C          65.8322   92.8263   12.5711 C.2     1  UNL1        0.2254
      5 O          66.7018   93.8099   13.2965 O.2     1  UNL1       -0.2748
      6 N          65.5344   93.0205   11.1139 N.am    1  UNL1       -0.2876
      7 H          64.9637   92.3749   10.6378 H       1  UNL1        0.1545
      8 C          66.1063   94.1984   10.3819 C.2     1  UNL1        0.0245
      9 C          67.3959   94.0592    9.6285 C.2     1  UNL1        0.0011
     10 C          67.9677   95.2371    8.8966 C.3     1  UNL1        0.0284
     11 C          67.2500   96.5541    8.9182 C.3     1  UNL1        0.0051
     12 C          65.9605   96.6932    9.6717 C.3     1  UNL1        0.0063
     13 C          65.3887   95.5154   10.4036 C.3     1  UNL1        0.0409
     14 C          68.1136   92.7422    9.6068 C.2     1  UNL1        0.0698
     15 O          68.4118   92.0295   10.8925 O.co2   1  UNL1       -0.5449
     16 O          68.5329   92.1381    8.2996 O.co2   1  UNL1       -0.5449
     17 C          64.6884   90.4706   14.0348 C.3     1  UNL1        0.0966
     18 C          63.9531   89.4033   13.2797 C.ar    1  UNL1        0.2371
     19 N          63.0318   89.6220   12.1163 N.ar    1  UNL1       -0.1895
     20 C          62.5193   88.2838   11.6730 C.ar    1  UNL1        0.2210
     21 N          63.1238   87.2381   12.5624 N.ar    1  UNL1       -0.0544
     22 O          64.0100   87.9299   13.5554 O.2     1  UNL1       -0.3370
     23 C          61.5690   88.0350   10.5393 C.ar    1  UNL1        0.1205
     24 C          61.2902   86.6318   10.0887 C.ar    1  UNL1        0.0255
     25 C          60.3400   86.3830    8.9550 C.ar    1  UNL1        0.0399
     26 C          59.6686   87.5375    8.2721 C.ar    1  UNL1        0.1528
     27 O          58.7183   87.2887    7.1384 O.3     1  UNL1       -0.5039
     28 C          59.9474   88.9407    8.7227 C.ar    1  UNL1        0.1354
     29 N          60.8976   89.1895    9.8564 N.ar    1  UNL1       -0.2375
     30 H          58.5441   86.4121    6.8569 H       1  UNL1        0.2923
@<TRIPOS>UNITY_ATOM_ATTR
15 1
charge -1
@<TRIPOS>BOND
     1     1     2    1
     2     2     3    1
     3     2    17    1
     4    17    18    1
     5    18    19   ar
     6    19    20   ar
     7    20    23    1
     8    23    24   ar
     9    24    25   ar
    10    25    26   ar
    11    26    27    1
    12    26    28   ar
    13    28    29   ar
    14    20    21   ar
    15    21    22   ar
    16     2     4    1
    17     4     5    2
    18     4     6   am
    19     6     8    1
    20     8     9    2
    21     9    14    1
    22    14    15   ar
    23    14    16   ar
    24     9    10    1
    25    10    11    1
    26    11    12    1
    27    12    13    1
    28    22    18   ar
    29    13     8    1
    30    29    23   ar
    31    27    30    1
    32     6     7    1
@<TRIPOS>MOLECULE
*****
 30 32 0 0 0
SMALL
GASTEIGER

@<TRIPOS>ATOM
      1 C          62.5268   85.7360   16.9006 C.3     1  UNL1        0.0096
      2 C          63.4520   86.4776   15.9819 C.3     1  UNL1        0.0780
      3 C          64.3772   87.2191   15.0632 C.3     1  UNL1        0.0096
      4 C          63.6093   85.2434   15.1441 C.2     1  UNL1        0.2254
      5 O          64.9719   84.6574   14.9204 O.2     1  UNL1       -0.2748
      6 N          62.4041   84.5951   14.5301 N.am    1  UNL1       -0.2876
      7 H          61.5098   84.9797   14.6770 H       1  UNL1        0.1545
      8 C          62.5613   83.3608   13.6922 C.2     1  UNL1        0.0245
      9 C          62.6021   83.4697   12.1968 C.2     1  UNL1        0.0011
     10 C          62.7593   82.2354   11.3590 C.3     1  UNL1        0.0284
     11 C          62.8759   80.8923   12.0167 C.3     1  UNL1        0.0051
     12 C          62.8351   80.7835   13.5122 C.3     1  UNL1        0.0063
     13 C          62.6779   82.0177   14.3500 C.3     1  UNL1        0.0409
     14 C          62.4855   84.8127   11.5391 C.2     1  UNL1        0.0698
     15 O          63.0640   85.0314   10.1725 O.co2   1  UNL1       -0.5449
     16 O          61.7905   85.9371   12.2479 O.co2   1  UNL1       -0.5449
     17 C          63.2947   87.7118   16.8197 C.3     1  UNL1        0.0966
     18 C          63.4866   89.0659   16.2037 C.ar    1  UNL1        0.2371
     19 N          64.0284   89.3420   14.8325 N.ar    1  UNL1       -0.1895
     20 C          64.0470   90.8284   14.6321 C.ar    1  UNL1        0.2210
     21 N          63.5167   91.4710   15.8794 N.ar    1  UNL1       -0.0544
     22 O          63.1703   90.3818   16.8508 O.2     1  UNL1       -0.3370
     23 C          64.5140   91.5463   13.4005 C.ar    1  UNL1        0.1205
     24 C          63.9743   91.1579   12.0560 C.ar    1  UNL1        0.0255
     25 C          64.4412   91.8757   10.8245 C.ar    1  UNL1        0.0399
     26 C          65.4479   92.9820   10.9375 C.ar    1  UNL1        0.1528
     27 O          65.9149   93.6998    9.7059 O.3     1  UNL1       -0.5039
     28 C          65.9876   93.3704   12.2820 C.ar    1  UNL1        0.1354
     29 N          65.5207   92.6526   13.5135 N.ar    1  UNL1       -0.2375
     30 H          65.5777   93.4572    8.8661 H       1  UNL1        0.2923
@<TRIPOS>UNITY_ATOM_ATTR
15 1
charge -1
@<TRIPOS>BOND
     1     1     2    1
     2     2     3    1
     3     2    17    1
     4    17    18    1
     5    18    19   ar
     6    19    20   ar
     7    20    23    1
     8    23    24   ar
     9    24    25   ar
    10    25    26   ar
    11    26    27    1
    12    26    28   ar
    13    28    29   ar
    14    20    21   ar
    15    21    22   ar
    16     2     4    1
    17     4     5    2
    18     4     6   am
    19     6     8    1
    20     8     9    2
    21     9    14    1
    22    14    15   ar
    23    14    16   ar
    24     9    10    1
    25    10    11    1
    26    11    12    1
    27    12    13    1
    28    22    18   ar
    29    13     8    1
    30    29    23   ar
    31    27    30    1
    32     6     7    1
@<TRIPOS>MOLECULE
*****
 30 32 0 0 0
SMALL
GASTEIGER

@<TRIPOS>ATOM
      1 C          66.7275   91.7917   15.1100 C.3     1  UNL1        0.0096
      2 C          65.5638   91.7344   14.1652 C.3     1  UNL1        0.0780
      3 C          64.4002   91.6772   13.2205 C.3     1  UNL1        0.0096
      4 C          66.4601   92.1489   13.0362 C.2     1  UNL1        0.2254
      5 O          67.9499   92.0782   13.1964 O.2     1  UNL1       -0.2748
      6 N          65.8667   92.6340   11.7468 N.am    1  UNL1       -0.2876
      7 H          64.8889   92.6804   11.6416 H       1  UNL1        0.1545
      8 C          66.7630   93.0485   10.6176 C.2     1  UNL1        0.0245
      9 C          66.7835   94.4775   10.1621 C.2     1  UNL1        0.0011
     10 C          67.6798   94.8919    9.0330 C.3     1  UNL1        0.0284
     11 C          68.5555   93.8773    8.3594 C.3     1  UNL1        0.0051
     12 C          68.5350   92.4483    8.8149 C.3     1  UNL1        0.0063
     13 C          67.6388   92.0339    9.9440 C.3     1  UNL1        0.0409
     14 C          65.9077   95.4921   10.8357 C.2     1  UNL1        0.0698
     15 O          66.0567   95.7539   12.3051 O.co2   1  UNL1       -0.5449
     16 O          64.8831   96.2447   10.0398 O.co2   1  UNL1       -0.5449
     17 C          64.6675   91.3200   15.2943 C.3     1  UNL1        0.0966
     18 C          64.2255   89.8917   15.4156 C.ar    1  UNL1        0.2371
     19 N          64.5493   88.7842   14.4572 N.ar    1  UNL1       -0.1895
     20 C          63.9060   87.5282   14.9658 C.ar    1  UNL1        0.2210
     21 N          63.1846   87.8595   16.2385 N.ar    1  UNL1       -0.0544
     22 O          63.3820   89.3202   16.5165 O.2     1  UNL1       -0.3370
     23 C          63.9724   86.1779   14.3157 C.ar    1  UNL1        0.1205
     24 C          64.7890   85.0849   14.9390 C.ar    1  UNL1        0.0255
     25 C          64.8554   83.7347   14.2890 C.ar    1  UNL1        0.0399
     26 C          64.1052   83.4776   13.0157 C.ar    1  UNL1        0.1528
     27 O          64.1716   82.1273   12.3657 O.3     1  UNL1       -0.5039
     28 C          63.2887   84.5706   12.3925 C.ar    1  UNL1        0.1354
     29 N          63.2223   85.9208   13.0425 N.ar    1  UNL1       -0.2375
     30 H          64.6817   81.4445   12.7550 H       1  UNL1        0.2923
@<TRIPOS>UNITY_ATOM_ATTR
15 1
charge -1
@<TRIPOS>BOND
     1     1     2    1
     2     2     3    1
     3     2    17    1
     4    17    18    1
     5    18    19   ar
     6    19    20   ar
     7    20    23    1
     8    23    24   ar
     9    24    25   ar
    10    25    26   ar
    11    26    27    1
    12    26    28   ar
    13    28    29   ar
    14    20    21   ar
    15    21    22   ar
    16     2     4    1
    17     4     5    2
    18     4     6   am
    19     6     8    1
    20     8     9    2
    21     9    14    1
    22    14    15   ar
    23    14    16   ar
    24     9    10    1
    25    10    11    1
    26    11    12    1
    27    12    13    1
    28    22    18   ar
    29    13     8    1
    30    29    23   ar
    31    27    30    1
    32     6     7    1
@<TRIPOS>MOLECULE
*****
 30 32 0 0 0
SMALL
GASTEIGER

@<TRIPOS>ATOM
      1 C          62.8769   89.7474   12.3341 C.3     1  UNL1        0.0096
      2 C          63.5944   89.0269   13.4368 C.3     1  UNL1        0.0780
      3 C          64.3119   88.3064   14.5396 C.3     1  UNL1        0.0096
      4 C          63.2923   87.7147   12.7760 C.2     1  UNL1        0.2254
      5 O          62.6784   87.6878   11.4076 O.2     1  UNL1       -0.2748
      6 N          63.6042   86.4293   13.4835 N.am    1  UNL1       -0.2876
      7 H          64.0071   86.4470   14.3816 H       1  UNL1        0.1545
      8 C          63.3020   85.1170   12.8227 C.2     1  UNL1        0.0245
      9 C          63.0432   83.8985   13.6583 C.2     1  UNL1        0.0011
     10 C          62.7411   82.5862   12.9975 C.3     1  UNL1        0.0284
     11 C          62.6979   82.4925   11.5010 C.3     1  UNL1        0.0051
     12 C          62.9567   83.7110   10.6654 C.3     1  UNL1        0.0063
     13 C          63.2588   85.0232   11.3262 C.3     1  UNL1        0.0409
     14 C          63.0864   83.9922   15.1548 C.2     1  UNL1        0.0698
     15 O          64.0005   83.0958   15.9363 O.co2   1  UNL1       -0.5449
     16 O          62.2155   84.9824   15.8696 O.co2   1  UNL1       -0.5449
     17 C          63.8965   90.3391   14.0977 C.3     1  UNL1        0.0966
     18 C          65.0230   91.1914   13.5928 C.ar    1  UNL1        0.2371
     19 N          64.9575   92.1449   12.4367 N.ar    1  UNL1       -0.1895
     20 C          66.3067   92.7825   12.2848 C.ar    1  UNL1        0.2210
     21 N          67.2060   92.2231   13.3470 N.ar    1  UNL1       -0.0544
     22 O          66.4127   91.2397   14.1554 O.2     1  UNL1       -0.3370
     23 C          66.6894   93.8009   11.2520 C.ar    1  UNL1        0.1205
     24 C          66.2162   95.2180   11.3847 C.ar    1  UNL1        0.0255
     25 C          66.5989   96.2363   10.3519 C.ar    1  UNL1        0.0399
     26 C          67.4548   95.8373    9.1865 C.ar    1  UNL1        0.1528
     27 O          67.8375   96.8557    8.1537 O.3     1  UNL1       -0.5039
     28 C          67.9280   94.4202    9.0538 C.ar    1  UNL1        0.1354
     29 N          67.5453   93.4019   10.0866 N.ar    1  UNL1       -0.2375
     30 H          67.5419   97.7409    8.2365 H       1  UNL1        0.2923
@<TRIPOS>UNITY_ATOM_ATTR
15 1
charge -1
@<TRIPOS>BOND
     1     1     2    1
     2     2     3    1
     3     2    17    1
     4    17    18    1
     5    18    19   ar
     6    19    20   ar
     7    20    23    1
     8    23    24   ar
     9    24    25   ar
    10    25    26   ar
    11    26    27    1
    12    26    28   ar
    13    28    29   ar
    14    20    21   ar
    15    21    22   ar
    16     2     4    1
    17     4     5    2
    18     4     6   am
    19     6     8    1
    20     8     9    2
    21     9    14    1
    22    14    15   ar
    23    14    16   ar
    24     9    10    1
    25    10    11    1
    26    11    12    1
    27    12    13    1
    28    22    18   ar
    29    13     8    1
    30    29    23   ar
    31    27    30    1
    32     6     7    1
