@<TRIPOS>MOLECULE
*****
 30 33 0 0 0
SMALL
GASTEIGER

@<TRIPOS>ATOM
      1 N          59.6759   88.3939   10.6517 N.pl3   1  UNL1       -0.3039
      2 H          58.7267   88.1946   10.8205 H       1  UNL1        0.1496
      3 C          60.2898   87.4151    7.8831 C.3     1  UNL1        0.1363
      4 N          60.9603   86.7844    9.0675 N.ar    1  UNL1       -0.2669
      5 C          60.6534   87.2738   10.4518 C.ar    1  UNL1        0.2002
      6 N          61.3239   86.6431   11.6361 N.ar    1  UNL1       -0.2150
      7 C          62.3014   85.5229   11.4361 C.ar    1  UNL1        0.0895
      8 C          62.9718   84.8923   12.6205 C.ar    1  UNL1        0.0307
      9 C          63.9493   83.7722   12.4205 C.ar    1  UNL1        0.0592
     10 CL         64.6198   83.1414   13.6048 Cl      1  UNL1       -0.0822
     11 C          64.2562   83.2828   11.0362 C.ar    1  UNL1        0.0116
     12 C          63.5857   83.9135    9.8519 C.ar    1  UNL1        0.0071
     13 C          62.6083   85.0335   10.0518 C.ar    1  UNL1        0.0740
     14 C          61.9378   85.6643    8.8675 C.ar    1  UNL1        0.2643
     15 O          62.2447   85.1749    7.4832 O.2     1  UNL1       -0.2668
     16 C          60.1447   89.8176   10.5945 C.3     1  UNL1        0.0942
     17 C          61.5054   90.1378   10.0503 C.3     1  UNL1        0.0476
     18 C          62.6011   90.5719   10.9783 C.ar    1  UNL1       -0.0205
     19 C          62.6585   90.0307   12.3761 C.ar    1  UNL1       -0.0042
     20 C          63.7542   90.4647   13.3040 C.ar    1  UNL1        0.0012
     21 C          64.7925   91.4399   12.8341 C.ar    1  UNL1        0.0176
     22 C          64.7352   91.9811   11.4363 C.ar    1  UNL1        0.0012
     23 C          63.6395   91.5470   10.5084 C.ar    1  UNL1       -0.0042
     24 C          65.8883   91.8739   13.7620 C.ar    1  UNL1        0.0815
     25 C          67.3120   91.8809   13.2899 C.ar    1  UNL1        0.0215
     26 C          68.4077   92.3149   14.2177 C.ar    1  UNL1        0.0328
     27 C          68.0798   92.7420   15.6178 C.ar    1  UNL1        0.1592
     28 F          69.1755   93.1761   16.5456 F       1  UNL1       -0.2025
     29 C          66.6560   92.7351   16.0899 C.ar    1  UNL1        0.1283
     30 N          65.5603   92.3011   15.1620 N.ar    1  UNL1       -0.2415
@<TRIPOS>BOND
     1     3     4    1
     2     4     5   ar
     3     5     1    1
     4     1    16    1
     5    16    17    1
     6    17    18    1
     7    18    19   ar
     8    19    20   ar
     9    20    21   ar
    10    21    24    1
    11    24    25   ar
    12    25    26   ar
    13    26    27   ar
    14    27    28    1
    15    27    29   ar
    16    29    30   ar
    17    21    22   ar
    18    22    23   ar
    19     5     6   ar
    20     6     7   ar
    21     7     8   ar
    22     8     9   ar
    23     9    10    1
    24     9    11   ar
    25    11    12   ar
    26    12    13   ar
    27    13    14   ar
    28    14    15    2
    29    14     4   ar
    30    23    18   ar
    31    13     7   ar
    32    30    24   ar
    33     1     2    1
@<TRIPOS>MOLECULE
*****
 30 33 0 0 0
SMALL
GASTEIGER

@<TRIPOS>ATOM
      1 N          62.7040   83.7391   15.1632 N.pl3   1  UNL1       -0.3039
      2 H          63.0676   82.9096   15.5493 H       1  UNL1        0.1496
      3 C          64.3116   81.8834   13.4392 C.3     1  UNL1        0.1363
      4 N          63.6143   83.0616   12.8260 N.ar    1  UNL1       -0.2669
      5 C          62.8106   83.9894   13.6881 C.ar    1  UNL1        0.2002
      6 N          62.1133   85.1675   13.0750 N.ar    1  UNL1       -0.2150
      7 C          62.2199   85.4178   11.5998 C.ar    1  UNL1        0.0895
      8 C          61.5226   86.5959   10.9867 C.ar    1  UNL1        0.0307
      9 C          61.6292   86.8462    9.5116 C.ar    1  UNL1        0.0592
     10 CL         60.9319   88.0244    8.8985 Cl      1  UNL1       -0.0822
     11 C          62.4329   85.9184    8.6496 C.ar    1  UNL1        0.0116
     12 C          63.1301   84.7402    9.2627 C.ar    1  UNL1        0.0071
     13 C          63.0236   84.4900   10.7378 C.ar    1  UNL1        0.0740
     14 C          63.7209   83.3118   11.3509 C.ar    1  UNL1        0.2643
     15 O          64.5246   82.3840   10.4889 O.2     1  UNL1       -0.2668
     16 C          62.0437   84.7526   16.0502 C.3     1  UNL1        0.0942
     17 C          62.8797   85.7059   16.8516 C.3     1  UNL1        0.0476
     18 C          63.3853   86.9707   16.2234 C.ar    1  UNL1       -0.0205
     19 C          63.0032   88.3006   16.8026 C.ar    1  UNL1       -0.0042
     20 C          63.5088   89.5654   16.1744 C.ar    1  UNL1        0.0012
     21 C          64.3965   89.5003   14.9671 C.ar    1  UNL1        0.0176
     22 C          64.7787   88.1705   14.3880 C.ar    1  UNL1        0.0012
     23 C          64.2731   86.9057   15.0161 C.ar    1  UNL1       -0.0042
     24 C          64.9022   90.7652   14.3389 C.ar    1  UNL1        0.0815
     25 C          64.5238   91.1050   12.9278 C.ar    1  UNL1        0.0215
     26 C          65.0294   92.3698   12.2996 C.ar    1  UNL1        0.0328
     27 C          65.9134   93.2948   13.0825 C.ar    1  UNL1        0.1592
     28 F          66.4190   94.5596   12.4543 F       1  UNL1       -0.2025
     29 C          66.2918   92.9550   14.4937 C.ar    1  UNL1        0.1283
     30 N          65.7862   91.6901   15.1219 N.ar    1  UNL1       -0.2415
@<TRIPOS>BOND
     1     3     4    1
     2     4     5   ar
     3     5     1    1
     4     1    16    1
     5    16    17    1
     6    17    18    1
     7    18    19   ar
     8    19    20   ar
     9    20    21   ar
    10    21    24    1
    11    24    25   ar
    12    25    26   ar
    13    26    27   ar
    14    27    28    1
    15    27    29   ar
    16    29    30   ar
    17    21    22   ar
    18    22    23   ar
    19     5     6   ar
    20     6     7   ar
    21     7     8   ar
    22     8     9   ar
    23     9    10    1
    24     9    11   ar
    25    11    12   ar
    26    12    13   ar
    27    13    14   ar
    28    14    15    2
    29    14     4   ar
    30    23    18   ar
    31    13     7   ar
    32    30    24   ar
    33     1     2    1
@<TRIPOS>MOLECULE
*****
 30 33 0 0 0
SMALL
GASTEIGER

@<TRIPOS>ATOM
      1 N          64.2915   87.6750   14.5458 N.pl3   1  UNL1       -0.3039
      2 H          65.2535   87.4894   14.6423 H       1  UNL1        0.1496
      3 C          64.1306   84.7290   14.0025 C.3     1  UNL1        0.1363
      4 N          63.4674   85.7006   13.0718 N.ar    1  UNL1       -0.2669
      5 C          63.5479   87.1737   13.3434 C.ar    1  UNL1        0.2002
      6 N          62.8847   88.1452   12.4128 N.ar    1  UNL1       -0.2150
      7 C          62.1410   87.6439   11.2104 C.ar    1  UNL1        0.0895
      8 C          61.4778   88.6154   10.2798 C.ar    1  UNL1        0.0307
      9 C          60.7342   88.1140    9.0775 C.ar    1  UNL1        0.0592
     10 CL         60.0709   89.0856    8.1468 Cl      1  UNL1       -0.0822
     11 C          60.6537   86.6410    8.8058 C.ar    1  UNL1        0.0116
     12 C          61.3169   85.6694    9.7365 C.ar    1  UNL1        0.0071
     13 C          62.0605   86.1709   10.9388 C.ar    1  UNL1        0.0740
     14 C          62.7238   85.1992   11.8695 C.ar    1  UNL1        0.2643
     15 O          62.6433   83.7262   11.5978 O.2     1  UNL1       -0.2668
     16 C          63.5695   88.4593   15.6010 C.3     1  UNL1        0.0942
     17 C          63.8806   89.9132   15.7994 C.3     1  UNL1        0.0476
     18 C          64.4723   90.7135   14.6772 C.ar    1  UNL1       -0.0205
     19 C          63.6758   90.9595   13.4302 C.ar    1  UNL1       -0.0042
     20 C          64.2674   91.7598   12.3079 C.ar    1  UNL1        0.0012
     21 C          65.6556   92.3141   12.4327 C.ar    1  UNL1        0.0176
     22 C          66.4521   92.0681   13.6797 C.ar    1  UNL1        0.0012
     23 C          65.8605   91.2678   14.8019 C.ar    1  UNL1       -0.0042
     24 C          66.2473   93.1144   11.3104 C.ar    1  UNL1        0.0815
     25 C          67.2787   92.4983   10.4124 C.ar    1  UNL1        0.0215
     26 C          67.8704   93.2985    9.2902 C.ar    1  UNL1        0.0328
     27 C          67.4307   94.7150    9.0659 C.ar    1  UNL1        0.1592
     28 F          68.0224   95.5153    7.9437 F       1  UNL1       -0.2025
     29 C          66.3992   95.3312    9.9639 C.ar    1  UNL1        0.1283
     30 N          65.8075   94.5308   11.0862 N.ar    1  UNL1       -0.2415
@<TRIPOS>BOND
     1     3     4    1
     2     4     5   ar
     3     5     1    1
     4     1    16    1
     5    16    17    1
     6    17    18    1
     7    18    19   ar
     8    19    20   ar
     9    20    21   ar
    10    21    24    1
    11    24    25   ar
    12    25    26   ar
    13    26    27   ar
    14    27    28    1
    15    27    29   ar
    16    29    30   ar
    17    21    22   ar
    18    22    23   ar
    19     5     6   ar
    20     6     7   ar
    21     7     8   ar
    22     8     9   ar
    23     9    10    1
    24     9    11   ar
    25    11    12   ar
    26    12    13   ar
    27    13    14   ar
    28    14    15    2
    29    14     4   ar
    30    23    18   ar
    31    13     7   ar
    32    30    24   ar
    33     1     2    1
@<TRIPOS>MOLECULE
*****
 30 33 0 0 0
SMALL
GASTEIGER

@<TRIPOS>ATOM
      1 N          61.3831   87.1138    9.5268 N.pl3   1  UNL1       -0.3039
      2 H          60.5857   86.8999    8.9905 H       1  UNL1        0.1496
      3 C          63.0696   85.0610    8.1334 C.3     1  UNL1        0.1363
      4 N          62.9070   85.0118    9.6238 N.ar    1  UNL1       -0.2669
      5 C          62.0638   86.0382   10.3205 C.ar    1  UNL1        0.2002
      6 N          61.9012   85.9890   11.8108 N.ar    1  UNL1       -0.2150
      7 C          62.5818   84.9134   12.6045 C.ar    1  UNL1        0.0895
      8 C          62.4192   84.8643   14.0948 C.ar    1  UNL1        0.0307
      9 C          63.0999   83.7887   14.8884 C.ar    1  UNL1        0.0592
     10 CL         62.9373   83.7395   16.3788 Cl      1  UNL1       -0.0822
     11 C          63.9431   82.7623   14.1917 C.ar    1  UNL1        0.0116
     12 C          64.1057   82.8115   12.7014 C.ar    1  UNL1        0.0071
     13 C          63.4251   83.8870   11.9078 C.ar    1  UNL1        0.0740
     14 C          63.5877   83.9362   10.4174 C.ar    1  UNL1        0.2643
     15 O          64.4309   82.9098    9.7207 O.2     1  UNL1       -0.2668
     16 C          61.9174   88.5152    9.5503 C.3     1  UNL1        0.0942
     17 C          61.5946   89.4217   10.7010 C.3     1  UNL1        0.0476
     18 C          62.7010   90.0112   11.5247 C.ar    1  UNL1       -0.0205
     19 C          63.4277   91.2311   11.0412 C.ar    1  UNL1       -0.0042
     20 C          64.5340   91.8206   11.8648 C.ar    1  UNL1        0.0012
     21 C          64.9136   91.1903   13.1719 C.ar    1  UNL1        0.0176
     22 C          64.1869   89.9704   13.6554 C.ar    1  UNL1        0.0012
     23 C          63.0806   89.3809   12.8318 C.ar    1  UNL1       -0.0042
     24 C          66.0200   91.7798   13.9956 C.ar    1  UNL1        0.0815
     25 C          67.4118   91.8513   13.4408 C.ar    1  UNL1        0.0215
     26 C          68.5182   92.4408   14.2645 C.ar    1  UNL1        0.0328
     27 C          68.2328   92.9589   15.6430 C.ar    1  UNL1        0.1592
     28 F          69.3392   93.5484   16.4666 F       1  UNL1       -0.2025
     29 C          66.8410   92.8875   16.1977 C.ar    1  UNL1        0.1283
     30 N          65.7346   92.2979   15.3740 N.ar    1  UNL1       -0.2415
@<TRIPOS>BOND
     1     3     4    1
     2     4     5   ar
     3     5     1    1
     4     1    16    1
     5    16    17    1
     6    17    18    1
     7    18    19   ar
     8    19    20   ar
     9    20    21   ar
    10    21    24    1
    11    24    25   ar
    12    25    26   ar
    13    26    27   ar
    14    27    28    1
    15    27    29   ar
    16    29    30   ar
    17    21    22   ar
    18    22    23   ar
    19     5     6   ar
    20     6     7   ar
    21     7     8   ar
    22     8     9   ar
    23     9    10    1
    24     9    11   ar
    25    11    12   ar
    26    12    13   ar
    27    13    14   ar
    28    14    15    2
    29    14     4   ar
    30    23    18   ar
    31    13     7   ar
    32    30    24   ar
    33     1     2    1
@<TRIPOS>MOLECULE
*****
 30 33 0 0 0
SMALL
GASTEIGER

@<TRIPOS>ATOM
      1 N          62.3433   89.4353   15.4121 N.pl3   1  UNL1       -0.3039
      2 H          61.5391   89.1841   14.9028 H       1  UNL1        0.1496
      3 C          62.3385   89.8758   12.4446 C.3     1  UNL1        0.1363
      4 N          63.3858   90.5278   13.2979 N.ar    1  UNL1       -0.2669
      5 C          63.3882   90.3076   14.7817 C.ar    1  UNL1        0.2002
      6 N          64.4355   90.9595   15.6350 N.ar    1  UNL1       -0.2150
      7 C          65.4804   91.8318   15.0045 C.ar    1  UNL1        0.0895
      8 C          66.5276   92.4838   15.8578 C.ar    1  UNL1        0.0307
      9 C          67.5724   93.3560   15.2274 C.ar    1  UNL1        0.0592
     10 CL         68.6198   94.0080   16.0807 Cl      1  UNL1       -0.0822
     11 C          67.5700   93.5763   13.7437 C.ar    1  UNL1        0.0116
     12 C          66.5228   92.9243   12.8904 C.ar    1  UNL1        0.0071
     13 C          65.4780   92.0521   13.5208 C.ar    1  UNL1        0.0740
     14 C          64.4306   91.4001   12.6675 C.ar    1  UNL1        0.2643
     15 O          64.4282   91.6204   11.1837 O.2     1  UNL1       -0.2668
     16 C          62.5238   88.9457   16.8184 C.3     1  UNL1        0.0942
     17 C          63.4190   87.7745   17.0957 C.3     1  UNL1        0.0476
     18 C          63.3102   86.5330   16.2608 C.ar    1  UNL1       -0.0205
     19 C          62.3009   85.4800   16.6109 C.ar    1  UNL1       -0.0042
     20 C          62.1920   84.2385   15.7761 C.ar    1  UNL1        0.0012
     21 C          63.0924   84.0501   14.5914 C.ar    1  UNL1        0.0176
     22 C          64.1017   85.1031   14.2413 C.ar    1  UNL1        0.0012
     23 C          64.2106   86.3446   15.0761 C.ar    1  UNL1       -0.0042
     24 C          62.9835   82.8085   13.7566 C.ar    1  UNL1        0.0815
     25 C          63.2052   82.8794   12.2747 C.ar    1  UNL1        0.0215
     26 C          63.0963   81.6379   11.4399 C.ar    1  UNL1        0.0328
     27 C          62.7658   80.3256   12.0869 C.ar    1  UNL1        0.1592
     28 F          62.6570   79.0842   11.2521 F       1  UNL1       -0.2025
     29 C          62.5441   80.2548   13.5688 C.ar    1  UNL1        0.1283
     30 N          62.6530   81.4963   14.4036 N.ar    1  UNL1       -0.2415
@<TRIPOS>BOND
     1     3     4    1
     2     4     5   ar
     3     5     1    1
     4     1    16    1
     5    16    17    1
     6    17    18    1
     7    18    19   ar
     8    19    20   ar
     9    20    21   ar
    10    21    24    1
    11    24    25   ar
    12    25    26   ar
    13    26    27   ar
    14    27    28    1
    15    27    29   ar
    16    29    30   ar
    17    21    22   ar
    18    22    23   ar
    19     5     6   ar
    20     6     7   ar
    21     7     8   ar
    22     8     9   ar
    23     9    10    1
    24     9    11   ar
    25    11    12   ar
    26    12    13   ar
    27    13    14   ar
    28    14    15    2
    29    14     4   ar
    30    23    18   ar
    31    13     7   ar
    32    30    24   ar
    33     1     2    1
@<TRIPOS>MOLECULE
*****
 30 33 0 0 0
SMALL
GASTEIGER

@<TRIPOS>ATOM
      1 N          65.1882   84.0508   14.2028 N.pl3   1  UNL1       -0.3039
      2 H          66.1649   83.9302   14.1754 H       1  UNL1        0.1496
      3 C          63.1945   83.7387   16.4227 C.3     1  UNL1        0.1363
      4 N          63.6036   85.1088   15.9691 N.ar    1  UNL1       -0.2669
      5 C          64.6005   85.2648   14.8592 C.ar    1  UNL1        0.2002
      6 N          65.0096   86.6348   14.4057 N.ar    1  UNL1       -0.2150
      7 C          64.4219   87.8488   15.0621 C.ar    1  UNL1        0.0895
      8 C          64.8311   89.2188   14.6085 C.ar    1  UNL1        0.0307
      9 C          64.2434   90.4327   15.2649 C.ar    1  UNL1        0.0592
     10 CL         64.6525   91.8028   14.8114 Cl      1  UNL1       -0.0822
     11 C          63.2465   90.2767   16.3748 C.ar    1  UNL1        0.0116
     12 C          62.8374   88.9067   16.8284 C.ar    1  UNL1        0.0071
     13 C          63.4251   87.6928   16.1720 C.ar    1  UNL1        0.0740
     14 C          63.0159   86.3227   16.6255 C.ar    1  UNL1        0.2643
     15 O          62.0191   86.1667   17.7354 O.2     1  UNL1       -0.2668
     16 C          64.2878   83.0205   13.5882 C.3     1  UNL1        0.0942
     17 C          64.1998   82.8958   12.0960 C.3     1  UNL1        0.0476
     18 C          63.3966   83.8867   11.3066 C.ar    1  UNL1       -0.0205
     19 C          62.4056   84.7725   12.0017 C.ar    1  UNL1       -0.0042
     20 C          61.6024   85.7634   11.2124 C.ar    1  UNL1        0.0012
     21 C          61.7903   85.8684    9.7280 C.ar    1  UNL1        0.0176
     22 C          62.7813   84.9825    9.0328 C.ar    1  UNL1        0.0012
     23 C          63.5844   83.9917    9.8221 C.ar    1  UNL1       -0.0042
     24 C          60.9871   86.8593    8.9385 C.ar    1  UNL1        0.0815
     25 C          60.1342   86.3931    7.7960 C.ar    1  UNL1        0.0215
     26 C          59.3311   87.3839    7.0066 C.ar    1  UNL1        0.0328
     27 C          59.3807   88.8410    7.3597 C.ar    1  UNL1        0.1592
     28 F          58.5776   89.8318    6.5703 F       1  UNL1       -0.2025
     29 C          60.2336   89.3071    8.5023 C.ar    1  UNL1        0.1283
     30 N          61.0368   88.3162    9.2917 N.ar    1  UNL1       -0.2415
@<TRIPOS>BOND
     1     3     4    1
     2     4     5   ar
     3     5     1    1
     4     1    16    1
     5    16    17    1
     6    17    18    1
     7    18    19   ar
     8    19    20   ar
     9    20    21   ar
    10    21    24    1
    11    24    25   ar
    12    25    26   ar
    13    26    27   ar
    14    27    28    1
    15    27    29   ar
    16    29    30   ar
    17    21    22   ar
    18    22    23   ar
    19     5     6   ar
    20     6     7   ar
    21     7     8   ar
    22     8     9   ar
    23     9    10    1
    24     9    11   ar
    25    11    12   ar
    26    12    13   ar
    27    13    14   ar
    28    14    15    2
    29    14     4   ar
    30    23    18   ar
    31    13     7   ar
    32    30    24   ar
    33     1     2    1
@<TRIPOS>MOLECULE
*****
 30 33 0 0 0
SMALL
GASTEIGER

@<TRIPOS>ATOM
      1 N          63.1643   86.5426   12.2839 N.pl3   1  UNL1       -0.3039
      2 H          63.9013   87.0617   12.6797 H       1  UNL1        0.1496
      3 C          63.0202   85.4835   15.0870 C.3     1  UNL1        0.1363
      4 N          63.0026   84.5350   13.9250 N.ar    1  UNL1       -0.2669
      5 C          63.0747   85.0646   12.5235 C.ar    1  UNL1        0.2002
      6 N          63.0570   84.1162   11.3615 N.ar    1  UNL1       -0.2150
      7 C          62.9674   82.6381   11.6011 C.ar    1  UNL1        0.0895
      8 C          62.9497   81.6897   10.4392 C.ar    1  UNL1        0.0307
      9 C          62.8601   80.2117   10.6788 C.ar    1  UNL1        0.0592
     10 CL         62.8424   79.2632    9.5168 Cl      1  UNL1       -0.0822
     11 C          62.7880   79.6821   12.0803 C.ar    1  UNL1        0.0116
     12 C          62.8057   80.6305   13.2423 C.ar    1  UNL1        0.0071
     13 C          62.8953   82.1085   13.0027 C.ar    1  UNL1        0.0740
     14 C          62.9129   83.0570   14.1646 C.ar    1  UNL1        0.2643
     15 O          62.8409   82.5274   15.5662 O.2     1  UNL1       -0.2668
     16 C          62.1311   87.2299   11.4413 C.3     1  UNL1        0.0942
     17 C          62.0041   88.7240   11.4806 C.3     1  UNL1        0.0476
     18 C          63.0539   89.5482   12.1652 C.ar    1  UNL1       -0.0205
     19 C          63.5710   89.1361   13.5116 C.ar    1  UNL1       -0.0042
     20 C          64.6207   89.9603   14.1962 C.ar    1  UNL1        0.0012
     21 C          65.1534   91.1965   13.5344 C.ar    1  UNL1        0.0176
     22 C          64.6363   91.6086   12.1880 C.ar    1  UNL1        0.0012
     23 C          63.5865   90.7844   11.5034 C.ar    1  UNL1       -0.0042
     24 C          66.2032   92.0208   14.2190 C.ar    1  UNL1        0.0815
     25 C          67.2199   91.3583   15.1008 C.ar    1  UNL1        0.0215
     26 C          68.2697   92.1825   15.7854 C.ar    1  UNL1        0.0328
     27 C          68.3028   93.6691   15.5882 C.ar    1  UNL1        0.1592
     28 F          69.3525   94.4933   16.2728 F       1  UNL1       -0.2025
     29 C          67.2860   94.3316   14.7065 C.ar    1  UNL1        0.1283
     30 N          66.2362   93.5073   14.0219 N.ar    1  UNL1       -0.2415
@<TRIPOS>BOND
     1     3     4    1
     2     4     5   ar
     3     5     1    1
     4     1    16    1
     5    16    17    1
     6    17    18    1
     7    18    19   ar
     8    19    20   ar
     9    20    21   ar
    10    21    24    1
    11    24    25   ar
    12    25    26   ar
    13    26    27   ar
    14    27    28    1
    15    27    29   ar
    16    29    30   ar
    17    21    22   ar
    18    22    23   ar
    19     5     6   ar
    20     6     7   ar
    21     7     8   ar
    22     8     9   ar
    23     9    10    1
    24     9    11   ar
    25    11    12   ar
    26    12    13   ar
    27    13    14   ar
    28    14    15    2
    29    14     4   ar
    30    23    18   ar
    31    13     7   ar
    32    30    24   ar
    33     1     2    1
@<TRIPOS>MOLECULE
*****
 30 33 0 0 0
SMALL
GASTEIGER

@<TRIPOS>ATOM
      1 N          60.2328   90.2355    9.4293 N.pl3   1  UNL1       -0.3039
      2 H          59.6094   90.9604    9.1945 H       1  UNL1        0.1496
      3 C          59.9467   89.3401   12.2782 C.3     1  UNL1        0.1363
      4 N          61.1973   90.0390   11.8337 N.ar    1  UNL1       -0.2669
      5 C          61.3403   90.4868   10.4092 C.ar    1  UNL1        0.2002
      6 N          62.5909   91.1857    9.9647 N.ar    1  UNL1       -0.2150
      7 C          63.6984   91.4369   10.9447 C.ar    1  UNL1        0.0895
      8 C          64.9489   92.1359   10.5002 C.ar    1  UNL1        0.0307
      9 C          66.0564   92.3871   11.4801 C.ar    1  UNL1        0.0592
     10 CL         67.3070   93.0860   11.0356 Cl      1  UNL1       -0.0822
     11 C          65.9134   91.9393   12.9046 C.ar    1  UNL1        0.0116
     12 C          64.6629   91.2404   13.3491 C.ar    1  UNL1        0.0071
     13 C          63.5554   90.9892   12.3691 C.ar    1  UNL1        0.0740
     14 C          62.3048   90.2902   12.8136 C.ar    1  UNL1        0.2643
     15 O          62.1617   89.8425   14.2381 O.2     1  UNL1       -0.2668
     16 C          60.0750   88.8798    8.8071 C.3     1  UNL1        0.0942
     17 C          61.2880   88.0735    8.4485 C.3     1  UNL1        0.0476
     18 C          61.7034   86.9192    9.3117 C.ar    1  UNL1       -0.0205
     19 C          62.5758   85.8370    8.7480 C.ar    1  UNL1       -0.0042
     20 C          62.9912   84.6828    9.6111 C.ar    1  UNL1        0.0012
     21 C          62.5341   84.6106   11.0379 C.ar    1  UNL1        0.0176
     22 C          61.6617   85.6928   11.6016 C.ar    1  UNL1        0.0012
     23 C          61.2463   86.8471   10.7385 C.ar    1  UNL1       -0.0042
     24 C          62.9495   83.4563   11.9011 C.ar    1  UNL1        0.0815
     25 C          63.5360   83.7079   13.2586 C.ar    1  UNL1        0.0215
     26 C          63.9514   82.5536   14.1218 C.ar    1  UNL1        0.0328
     27 C          63.7802   81.1477   13.6275 C.ar    1  UNL1        0.1592
     28 F          64.1956   79.9935   14.4907 F       1  UNL1       -0.2025
     29 C          63.1937   80.8961   12.2701 C.ar    1  UNL1        0.1283
     30 N          62.7784   82.0505   11.4069 N.ar    1  UNL1       -0.2415
@<TRIPOS>BOND
     1     3     4    1
     2     4     5   ar
     3     5     1    1
     4     1    16    1
     5    16    17    1
     6    17    18    1
     7    18    19   ar
     8    19    20   ar
     9    20    21   ar
    10    21    24    1
    11    24    25   ar
    12    25    26   ar
    13    26    27   ar
    14    27    28    1
    15    27    29   ar
    16    29    30   ar
    17    21    22   ar
    18    22    23   ar
    19     5     6   ar
    20     6     7   ar
    21     7     8   ar
    22     8     9   ar
    23     9    10    1
    24     9    11   ar
    25    11    12   ar
    26    12    13   ar
    27    13    14   ar
    28    14    15    2
    29    14     4   ar
    30    23    18   ar
    31    13     7   ar
    32    30    24   ar
    33     1     2    1
@<TRIPOS>MOLECULE
*****
 30 33 0 0 0
SMALL
GASTEIGER

@<TRIPOS>ATOM
      1 N          61.6257   90.6666   11.9303 N.pl3   1  UNL1       -0.3039
      2 H          61.0252   90.6689   12.7104 H       1  UNL1        0.1496
      3 C          63.0977   90.1107   14.4845 C.3     1  UNL1        0.1363
      4 N          63.7901   90.8208   13.3592 N.ar    1  UNL1       -0.2669
      5 C          63.0541   91.0988   12.0821 C.ar    1  UNL1        0.2002
      6 N          63.7465   91.8089   10.9568 N.ar    1  UNL1       -0.2150
      7 C          65.1749   92.2411   11.1086 C.ar    1  UNL1        0.0895
      8 C          65.8673   92.9512    9.9833 C.ar    1  UNL1        0.0307
      9 C          67.2956   93.3833   10.1351 C.ar    1  UNL1        0.0592
     10 CL         67.9880   94.0934    9.0098 Cl      1  UNL1       -0.0822
     11 C          68.0316   93.1053   11.4122 C.ar    1  UNL1        0.0116
     12 C          67.3392   92.3952   12.5375 C.ar    1  UNL1        0.0071
     13 C          65.9109   91.9631   12.3857 C.ar    1  UNL1        0.0740
     14 C          65.2184   91.2530   13.5110 C.ar    1  UNL1        0.2643
     15 O          65.9544   90.9750   14.7882 O.2     1  UNL1       -0.2668
     16 C          61.1124   90.2310   10.5899 C.3     1  UNL1        0.0942
     17 C          61.8298   89.1592    9.8242 C.3     1  UNL1        0.0476
     18 C          62.0234   87.8028   10.4350 C.ar    1  UNL1       -0.0205
     19 C          61.4675   86.5874    9.7541 C.ar    1  UNL1       -0.0042
     20 C          61.6611   85.2311   10.3648 C.ar    1  UNL1        0.0012
     21 C          62.4107   85.0903   11.6565 C.ar    1  UNL1        0.0176
     22 C          62.9666   86.3058   12.3373 C.ar    1  UNL1        0.0012
     23 C          62.7730   87.6621   11.7266 C.ar    1  UNL1       -0.0042
     24 C          62.6043   83.7340   12.2673 C.ar    1  UNL1        0.0815
     25 C          62.8778   82.5485   11.3899 C.ar    1  UNL1        0.0215
     26 C          63.0714   81.1923   12.0006 C.ar    1  UNL1        0.0328
     27 C          62.9916   81.0215   13.4888 C.ar    1  UNL1        0.1592
     28 F          63.1853   79.6652   14.0995 F       1  UNL1       -0.2025
     29 C          62.7181   82.2070   14.3661 C.ar    1  UNL1        0.1283
     30 N          62.5245   83.5633   13.7553 N.ar    1  UNL1       -0.2415
@<TRIPOS>BOND
     1     3     4    1
     2     4     5   ar
     3     5     1    1
     4     1    16    1
     5    16    17    1
     6    17    18    1
     7    18    19   ar
     8    19    20   ar
     9    20    21   ar
    10    21    24    1
    11    24    25   ar
    12    25    26   ar
    13    26    27   ar
    14    27    28    1
    15    27    29   ar
    16    29    30   ar
    17    21    22   ar
    18    22    23   ar
    19     5     6   ar
    20     6     7   ar
    21     7     8   ar
    22     8     9   ar
    23     9    10    1
    24     9    11   ar
    25    11    12   ar
    26    12    13   ar
    27    13    14   ar
    28    14    15    2
    29    14     4   ar
    30    23    18   ar
    31    13     7   ar
    32    30    24   ar
    33     1     2    1
