@<TRIPOS>MOLECULE
*****
 34 37 0 0 0
SMALL
GASTEIGER

@<TRIPOS>ATOM
      1 C          63.8972   90.6313   12.8978 C.ar    1  UNL1        0.0725
      2 C          64.4116   91.7350   12.0219 C.ar    1  UNL1        0.0077
      3 C          65.7072   92.4141   12.3541 C.ar    1  UNL1        0.0209
      4 C          66.4883   91.9895   13.5622 C.ar    1  UNL1        0.0989
      5 N          65.9738   90.8858   14.4382 N.ar    1  UNL1       -0.2422
      6 C          64.6783   90.2067   14.1059 C.ar    1  UNL1        0.1032
      7 C          66.2216   93.5178   11.4782 C.ar    1  UNL1        0.0215
      8 C          66.0817   94.9468   11.9123 C.ar    1  UNL1        0.0989
      9 N          66.5961   96.0505   11.0364 N.ar    1  UNL1       -0.2414
     10 C          67.2504   95.7252    9.7264 C.ar    1  UNL1        0.1102
     11 C          67.3902   94.2962    9.2922 C.ar    1  UNL1        0.0768
     12 CL         68.0444   93.9709    7.9823 Cl      1  UNL1       -0.0806
     13 C          66.8758   93.1925   10.1682 C.ar    1  UNL1        0.0146
     14 C          64.1638   89.1029   14.9818 C.ar    1  UNL1        0.0990
     15 C          63.4402   89.4307   16.2542 C.ar    1  UNL1        0.0207
     16 C          62.9258   88.3271   17.1301 C.ar    1  UNL1        0.0032
     17 C          63.1349   86.8956   16.7336 C.ar    1  UNL1        0.0207
     18 C          63.8585   86.5679   15.4612 C.ar    1  UNL1        0.0989
     19 N          64.3730   87.6715   14.5854 N.ar    1  UNL1       -0.2423
     20 N          62.3720   89.4080   11.1868 N.am    1  UNL1       -0.2956
     21 C          62.6016   89.9521   12.5656 C.2     1  UNL1        0.2476
     22 O          61.5356   89.8172   13.6122 O.2     1  UNL1       -0.2701
     23 H          63.0717   89.4966   10.4998 H       1  UNL1        0.1501
     24 C          61.0765   88.7289   10.8545 C.3     1  UNL1        0.1361
     25 C          60.9464   85.5778    7.6446 C.ar    1  UNL1        0.1916
     26 C          59.8246   86.5654    7.7720 C.ar    1  UNL1        0.0430
     27 C          59.8680   87.6157    8.8420 C.ar    1  UNL1        0.0198
     28 C          61.0331   87.6785    9.7845 C.ar    1  UNL1        0.0821
     29 N          62.1549   86.6910    9.6571 N.ar    1  UNL1       -0.2117
     30 C          62.1115   85.6406    8.5871 C.ar    1  UNL1        0.2598
     31 C          61.9811   84.4727    5.5332 C.3     1  UNL1        0.2527
     32 O          60.9030   84.5275    6.5746 O.3     1  UNL1       -0.4667
     33 O          63.2334   84.6530    8.4597 O.3     1  UNL1       -0.4541
     34 C          63.6965   83.8848    9.6619 C.3     1  UNL1        0.2543
@<TRIPOS>BOND
     1    31    32    1
     2    32    25    1
     3    25    26   ar
     4    26    27   ar
     5    27    28   ar
     6    28    24    1
     7    24    20    1
     8    20    21   am
     9    21    22    2
    10    21     1    1
    11     1     2   ar
    12     2     3   ar
    13     3     7    1
    14     7     8   ar
    15     8     9   ar
    16     9    10   ar
    17    10    11   ar
    18    11    12    1
    19    11    13   ar
    20     3     4   ar
    21     4     5   ar
    22     5     6   ar
    23     6    14    1
    24    14    15   ar
    25    15    16   ar
    26    16    17   ar
    27    17    18   ar
    28    18    19   ar
    29    28    29   ar
    30    29    30   ar
    31    30    33    1
    32    33    34    1
    33    30    25   ar
    34     6     1   ar
    35    19    14   ar
    36    13     7   ar
    37    20    23    1
@<TRIPOS>MOLECULE
*****
 34 37 0 0 0
SMALL
GASTEIGER

@<TRIPOS>ATOM
      1 C          64.0591   90.6677   12.7560 C.ar    1  UNL1        0.0725
      2 C          64.5339   91.7843   11.8741 C.ar    1  UNL1        0.0077
      3 C          65.5841   92.7350   12.3675 C.ar    1  UNL1        0.0209
      4 C          66.1594   92.5691   13.7428 C.ar    1  UNL1        0.0989
      5 N          65.6845   91.4525   14.6247 N.ar    1  UNL1       -0.2422
      6 C          64.6344   90.5018   14.1313 C.ar    1  UNL1        0.1032
      7 C          66.0589   93.8516   11.4856 C.ar    1  UNL1        0.0215
      8 C          66.0278   95.2660   11.9840 C.ar    1  UNL1        0.0989
      9 N          66.5026   96.3826   11.1021 N.ar    1  UNL1       -0.2414
     10 C          67.0085   96.0848    9.7217 C.ar    1  UNL1        0.1102
     11 C          67.0396   94.6704    9.2233 C.ar    1  UNL1        0.0768
     12 CL         67.5454   94.3725    7.8430 Cl      1  UNL1       -0.0806
     13 C          66.5647   93.5538   10.1053 C.ar    1  UNL1        0.0146
     14 C          64.1596   89.3852   15.0132 C.ar    1  UNL1        0.0990
     15 C          63.3217   89.6872   16.2201 C.ar    1  UNL1        0.0207
     16 C          62.8468   88.5707   17.1020 C.ar    1  UNL1        0.0032
     17 C          63.2099   87.1521   16.7770 C.ar    1  UNL1        0.0207
     18 C          64.0478   86.8500   15.5701 C.ar    1  UNL1        0.0989
     19 N          64.5226   87.9666   14.6882 N.ar    1  UNL1       -0.2423
     20 N          63.3456   88.2703   12.0536 N.am    1  UNL1       -0.2956
     21 C          63.0090   89.7170   12.2626 C.2     1  UNL1        0.2476
     22 O          61.6223   90.2130   11.9781 O.2     1  UNL1       -0.2701
     23 H          64.2558   87.9447   12.2403 H       1  UNL1        0.1501
     24 C          62.2955   87.3196   11.5603 C.3     1  UNL1        0.1361
     25 C          62.9992   82.8802   11.7764 C.ar    1  UNL1        0.1916
     26 C          62.9578   83.5690   10.4446 C.ar    1  UNL1        0.0430
     27 C          62.7233   85.0488   10.3726 C.ar    1  UNL1        0.0198
     28 C          62.5301   85.8398   11.6323 C.ar    1  UNL1        0.0821
     29 N          62.5715   85.1509   12.9641 N.ar    1  UNL1       -0.2117
     30 C          62.8061   83.6712   13.0361 C.ar    1  UNL1        0.2598
     31 C          62.3904   80.5505   12.7518 C.3     1  UNL1        0.2527
     32 O          63.2338   81.4004   11.8484 O.3     1  UNL1       -0.4667
     33 O          62.8475   82.9823   14.3680 O.3     1  UNL1       -0.4541
     34 C          63.9863   83.2388   15.3100 C.3     1  UNL1        0.2543
@<TRIPOS>BOND
     1    31    32    1
     2    32    25    1
     3    25    26   ar
     4    26    27   ar
     5    27    28   ar
     6    28    24    1
     7    24    20    1
     8    20    21   am
     9    21    22    2
    10    21     1    1
    11     1     2   ar
    12     2     3   ar
    13     3     7    1
    14     7     8   ar
    15     8     9   ar
    16     9    10   ar
    17    10    11   ar
    18    11    12    1
    19    11    13   ar
    20     3     4   ar
    21     4     5   ar
    22     5     6   ar
    23     6    14    1
    24    14    15   ar
    25    15    16   ar
    26    16    17   ar
    27    17    18   ar
    28    18    19   ar
    29    28    29   ar
    30    29    30   ar
    31    30    33    1
    32    33    34    1
    33    30    25   ar
    34     6     1   ar
    35    19    14   ar
    36    13     7   ar
    37    20    23    1
@<TRIPOS>MOLECULE
*****
 34 37 0 0 0
SMALL
GASTEIGER

@<TRIPOS>ATOM
      1 C          63.9321   90.3364   12.9066 C.ar    1  UNL1        0.0725
      2 C          64.4372   91.4307   12.0136 C.ar    1  UNL1        0.0077
      3 C          65.6470   92.2240   12.4102 C.ar    1  UNL1        0.0209
      4 C          66.3516   91.9230   13.6997 C.ar    1  UNL1        0.0989
      5 N          65.8465   90.8286   14.5927 N.ar    1  UNL1       -0.2422
      6 C          64.6368   90.0354   14.1961 C.ar    1  UNL1        0.1032
      7 C          66.1521   93.3183   11.5173 C.ar    1  UNL1        0.0215
      8 C          65.9422   94.7539   11.8980 C.ar    1  UNL1        0.0989
      9 N          66.4473   95.8482   11.0051 N.ar    1  UNL1       -0.2414
     10 C          67.1623   95.5069    9.7313 C.ar    1  UNL1        0.1102
     11 C          67.3721   94.0713    9.3506 C.ar    1  UNL1        0.0768
     12 CL         68.0871   93.7300    8.0769 Cl      1  UNL1       -0.0806
     13 C          66.8670   92.9770   10.2436 C.ar    1  UNL1        0.0146
     14 C          64.1316   88.9410   15.0890 C.ar    1  UNL1        0.0990
     15 C          63.3230   89.2794   16.3062 C.ar    1  UNL1        0.0207
     16 C          62.8179   88.1852   17.1992 C.ar    1  UNL1        0.0032
     17 C          63.1214   86.7525   16.8749 C.ar    1  UNL1        0.0207
     18 C          63.9300   86.4140   15.6577 C.ar    1  UNL1        0.0989
     19 N          64.4351   87.5083   14.7648 N.ar    1  UNL1       -0.2423
     20 N          61.4159   90.2389   12.2670 N.am    1  UNL1       -0.2956
     21 C          62.7223   89.5431   12.5100 C.2     1  UNL1        0.2476
     22 O          62.8191   88.0542   12.3565 O.2     1  UNL1       -0.2701
     23 H          61.3524   91.2162   12.3678 H       1  UNL1        0.1501
     24 C          60.2061   89.4457   11.8705 C.3     1  UNL1        0.1361
     25 C          60.3849   86.6971    8.3119 C.ar    1  UNL1        0.1916
     26 C          60.9332   86.2488    9.6342 C.ar    1  UNL1        0.0430
     27 C          60.8736   87.1650   10.8203 C.ar    1  UNL1        0.0198
     28 C          60.2657   88.5295   10.6843 C.ar    1  UNL1        0.0821
     29 N          59.7175   88.9778    9.3620 N.ar    1  UNL1       -0.2117
     30 C          59.7771   88.0616    8.1759 C.ar    1  UNL1        0.2598
     31 C          61.6647   84.9420    6.8866 C.3     1  UNL1        0.2527
     32 O          60.4445   85.7809    7.1257 O.3     1  UNL1       -0.4667
     33 O          59.2288   88.5100    6.8536 O.3     1  UNL1       -0.4541
     34 C          59.5261   89.8904    6.3475 C.3     1  UNL1        0.2543
@<TRIPOS>BOND
     1    31    32    1
     2    32    25    1
     3    25    26   ar
     4    26    27   ar
     5    27    28   ar
     6    28    24    1
     7    24    20    1
     8    20    21   am
     9    21    22    2
    10    21     1    1
    11     1     2   ar
    12     2     3   ar
    13     3     7    1
    14     7     8   ar
    15     8     9   ar
    16     9    10   ar
    17    10    11   ar
    18    11    12    1
    19    11    13   ar
    20     3     4   ar
    21     4     5   ar
    22     5     6   ar
    23     6    14    1
    24    14    15   ar
    25    15    16   ar
    26    16    17   ar
    27    17    18   ar
    28    18    19   ar
    29    28    29   ar
    30    29    30   ar
    31    30    33    1
    32    33    34    1
    33    30    25   ar
    34     6     1   ar
    35    19    14   ar
    36    13     7   ar
    37    20    23    1
@<TRIPOS>MOLECULE
*****
 34 37 0 0 0
SMALL
GASTEIGER

@<TRIPOS>ATOM
      1 C          62.7580   88.6825   11.5615 C.ar    1  UNL1        0.0725
      2 C          63.6259   89.5989   12.3720 C.ar    1  UNL1        0.0077
      3 C          63.9926   90.9518   11.8377 C.ar    1  UNL1        0.0209
      4 C          63.4916   91.3881   10.4929 C.ar    1  UNL1        0.0989
      5 N          62.6237   90.4716    9.6824 N.ar    1  UNL1       -0.2422
      6 C          62.2570   89.1189   10.2166 C.ar    1  UNL1        0.1032
      7 C          64.8605   91.8682   12.6483 C.ar    1  UNL1        0.0215
      8 C          65.5883   92.9971   11.9806 C.ar    1  UNL1        0.0989
      9 N          66.4561   93.9135   12.7912 N.ar    1  UNL1       -0.2414
     10 C          66.5961   93.7010   14.2695 C.ar    1  UNL1        0.1102
     11 C          65.8683   92.5721   14.9371 C.ar    1  UNL1        0.0768
     12 CL         66.0084   92.3596   16.4153 Cl      1  UNL1       -0.0806
     13 C          65.0005   91.6557   14.1265 C.ar    1  UNL1        0.0146
     14 C          61.3891   88.2024    9.4061 C.ar    1  UNL1        0.0990
     15 C          61.9386   86.9012    8.9010 C.ar    1  UNL1        0.0207
     16 C          61.0708   85.9848    8.0905 C.ar    1  UNL1        0.0032
     17 C          59.6535   86.3694    7.7851 C.ar    1  UNL1        0.0207
     18 C          59.1040   87.6705    8.2902 C.ar    1  UNL1        0.0989
     19 N          59.9718   88.5870    9.1007 N.ar    1  UNL1       -0.2423
     20 N          63.4149   86.5066   12.8200 N.am    1  UNL1       -0.2956
     21 C          62.3913   87.3297   12.0957 C.2     1  UNL1        0.2476
     22 O          61.0009   86.8000   11.9056 O.2     1  UNL1       -0.2701
     23 H          64.3275   86.8543   12.9448 H       1  UNL1        0.1501
     24 C          63.0482   85.1538   13.3543 C.3     1  UNL1        0.1361
     25 C          63.4788   81.5122   10.7460 C.ar    1  UNL1        0.1916
     26 C          63.8803   82.8600   10.2244 C.ar    1  UNL1        0.0430
     27 C          63.7368   84.0739   11.0939 C.ar    1  UNL1        0.0198
     28 C          63.1917   83.9399   12.4849 C.ar    1  UNL1        0.0821
     29 N          62.7902   82.5921   13.0064 N.ar    1  UNL1       -0.2117
     30 C          62.9337   81.3782   12.1370 C.ar    1  UNL1        0.2598
     31 C          62.4240   79.4501    9.5690 C.3     1  UNL1        0.2527
     32 O          63.6223   80.2983    9.8766 O.3     1  UNL1       -0.4667
     33 O          62.5321   80.0303   12.6587 O.3     1  UNL1       -0.4541
     34 C          61.7029   79.9247   13.9041 C.3     1  UNL1        0.2543
@<TRIPOS>BOND
     1    31    32    1
     2    32    25    1
     3    25    26   ar
     4    26    27   ar
     5    27    28   ar
     6    28    24    1
     7    24    20    1
     8    20    21   am
     9    21    22    2
    10    21     1    1
    11     1     2   ar
    12     2     3   ar
    13     3     7    1
    14     7     8   ar
    15     8     9   ar
    16     9    10   ar
    17    10    11   ar
    18    11    12    1
    19    11    13   ar
    20     3     4   ar
    21     4     5   ar
    22     5     6   ar
    23     6    14    1
    24    14    15   ar
    25    15    16   ar
    26    16    17   ar
    27    17    18   ar
    28    18    19   ar
    29    28    29   ar
    30    29    30   ar
    31    30    33    1
    32    33    34    1
    33    30    25   ar
    34     6     1   ar
    35    19    14   ar
    36    13     7   ar
    37    20    23    1
@<TRIPOS>MOLECULE
*****
 34 37 0 0 0
SMALL
GASTEIGER

@<TRIPOS>ATOM
      1 C          64.1881   89.6120   14.1610 C.ar    1  UNL1        0.0725
      2 C          65.2772   90.4419   14.7734 C.ar    1  UNL1        0.0077
      3 C          65.8079   91.6399   14.0430 C.ar    1  UNL1        0.0209
      4 C          65.2495   92.0078   12.7003 C.ar    1  UNL1        0.0989
      5 N          64.1603   91.1777   12.0880 N.ar    1  UNL1       -0.2422
      6 C          63.6297   89.9798   12.8183 C.ar    1  UNL1        0.1032
      7 C          66.8970   92.4699   14.6553 C.ar    1  UNL1        0.0215
      8 C          66.9497   93.9465   14.3972 C.ar    1  UNL1        0.0989
      9 N          68.0388   94.7765   15.0095 N.ar    1  UNL1       -0.2414
     10 C          69.0752   94.1298   15.8801 C.ar    1  UNL1        0.1102
     11 C          69.0224   92.6531   16.1382 C.ar    1  UNL1        0.0768
     12 CL         70.0587   92.0064   17.0087 Cl      1  UNL1       -0.0806
     13 C          67.9333   91.8232   15.5258 C.ar    1  UNL1        0.0146
     14 C          62.5405   89.1498   12.2060 C.ar    1  UNL1        0.0990
     15 C          61.1880   89.7502   11.9606 C.ar    1  UNL1        0.0207
     16 C          60.0989   88.9202   11.3483 C.ar    1  UNL1        0.0032
     17 C          60.3623   87.4898   10.9814 C.ar    1  UNL1        0.0207
     18 C          61.7149   86.8895   11.2268 C.ar    1  UNL1        0.0989
     19 N          62.8040   87.7194   11.8391 N.ar    1  UNL1       -0.2423
     20 N          64.1628   87.0434   14.5509 N.am    1  UNL1       -0.2956
     21 C          63.6574   88.4140   14.8914 C.2     1  UNL1        0.2476
     22 O          62.6213   88.5867   15.9622 O.2     1  UNL1       -0.2701
     23 H          64.8429   86.9300   13.8481 H       1  UNL1        0.1501
     24 C          63.6322   85.8455   15.2812 C.3     1  UNL1        0.1361
     25 C          63.1433   81.9280   13.1215 C.ar    1  UNL1        0.1916
     26 C          62.4267   82.1643   14.4179 C.ar    1  UNL1        0.0430
     27 C          62.5896   83.4701   15.1378 C.ar    1  UNL1        0.0198
     28 C          63.4692   84.5397   14.5613 C.ar    1  UNL1        0.0821
     29 N          64.1858   84.3034   13.2650 N.ar    1  UNL1       -0.2117
     30 C          64.0229   82.9975   12.5451 C.ar    1  UNL1        0.2598
     31 C          62.2445   79.4912   13.0569 C.3     1  UNL1        0.2527
     32 O          62.9803   80.6222   12.4016 O.3     1  UNL1       -0.4667
     33 O          64.7396   82.7613   11.2486 O.3     1  UNL1       -0.4541
     34 C          64.1077   83.1820    9.9549 C.3     1  UNL1        0.2543
@<TRIPOS>BOND
     1    31    32    1
     2    32    25    1
     3    25    26   ar
     4    26    27   ar
     5    27    28   ar
     6    28    24    1
     7    24    20    1
     8    20    21   am
     9    21    22    2
    10    21     1    1
    11     1     2   ar
    12     2     3   ar
    13     3     7    1
    14     7     8   ar
    15     8     9   ar
    16     9    10   ar
    17    10    11   ar
    18    11    12    1
    19    11    13   ar
    20     3     4   ar
    21     4     5   ar
    22     5     6   ar
    23     6    14    1
    24    14    15   ar
    25    15    16   ar
    26    16    17   ar
    27    17    18   ar
    28    18    19   ar
    29    28    29   ar
    30    29    30   ar
    31    30    33    1
    32    33    34    1
    33    30    25   ar
    34     6     1   ar
    35    19    14   ar
    36    13     7   ar
    37    20    23    1
@<TRIPOS>MOLECULE
*****
 34 37 0 0 0
SMALL
GASTEIGER

@<TRIPOS>ATOM
      1 C          63.1671   86.3624   12.8808 C.ar    1  UNL1        0.0725
      2 C          63.4042   87.7793   13.3122 C.ar    1  UNL1        0.0077
      3 C          64.2019   88.0628   14.5505 C.ar    1  UNL1        0.0209
      4 C          64.7626   86.9294   15.3573 C.ar    1  UNL1        0.0989
      5 N          64.5255   85.5124   14.9259 N.ar    1  UNL1       -0.2422
      6 C          63.7277   85.2289   13.6877 C.ar    1  UNL1        0.1032
      7 C          64.4390   89.4797   14.9818 C.ar    1  UNL1        0.0215
      8 C          63.5553   90.1056   16.0198 C.ar    1  UNL1        0.0989
      9 N          63.7924   91.5225   16.4511 N.ar    1  UNL1       -0.2414
     10 C          64.9133   92.3136   15.8445 C.ar    1  UNL1        0.1102
     11 C          65.7970   91.6877   14.8066 C.ar    1  UNL1        0.0768
     12 CL         66.9178   92.4788   14.2000 Cl      1  UNL1       -0.0806
     13 C          65.5599   90.2707   14.3752 C.ar    1  UNL1        0.0146
     14 C          63.4906   83.8120   13.2562 C.ar    1  UNL1        0.0990
     15 C          62.5150   82.9533   14.0052 C.ar    1  UNL1        0.0207
     16 C          62.2779   81.5364   13.5738 C.ar    1  UNL1        0.0032
     17 C          63.0162   80.9782   12.3935 C.ar    1  UNL1        0.0207
     18 C          63.9918   81.8369   11.6446 C.ar    1  UNL1        0.0989
     19 N          64.2289   83.2538   12.0759 N.ar    1  UNL1       -0.2423
     20 N          63.0518   85.5531   10.4147 N.am    1  UNL1       -0.2956
     21 C          62.3693   86.0788   11.6426 C.2     1  UNL1        0.2476
     22 O          60.8890   86.3210   11.6323 O.2     1  UNL1       -0.2701
     23 H          64.0234   85.3942   10.4214 H       1  UNL1        0.1501
     24 C          62.2541   85.2696    9.1764 C.3     1  UNL1        0.1361
     25 C          59.4242   88.3742    7.5630 C.ar    1  UNL1        0.1916
     26 C          59.4010   86.9794    7.0117 C.ar    1  UNL1        0.0430
     27 C          60.3443   85.9445    7.5495 C.ar    1  UNL1        0.0198
     28 C          61.3108   86.3045    8.6386 C.ar    1  UNL1        0.0821
     29 N          61.3340   87.6993    9.1899 N.ar    1  UNL1       -0.2117
     30 C          60.3907   88.7341    8.6521 C.ar    1  UNL1        0.2598
     31 C          58.8933   90.2712    5.8691 C.3     1  UNL1        0.2527
     32 O          58.4809   89.4090    7.0251 O.3     1  UNL1       -0.4667
     33 O          60.4140   90.1290    9.2034 O.3     1  UNL1       -0.4541
     34 C          60.2045   90.3590   10.6708 C.3     1  UNL1        0.2543
@<TRIPOS>BOND
     1    31    32    1
     2    32    25    1
     3    25    26   ar
     4    26    27   ar
     5    27    28   ar
     6    28    24    1
     7    24    20    1
     8    20    21   am
     9    21    22    2
    10    21     1    1
    11     1     2   ar
    12     2     3   ar
    13     3     7    1
    14     7     8   ar
    15     8     9   ar
    16     9    10   ar
    17    10    11   ar
    18    11    12    1
    19    11    13   ar
    20     3     4   ar
    21     4     5   ar
    22     5     6   ar
    23     6    14    1
    24    14    15   ar
    25    15    16   ar
    26    16    17   ar
    27    17    18   ar
    28    18    19   ar
    29    28    29   ar
    30    29    30   ar
    31    30    33    1
    32    33    34    1
    33    30    25   ar
    34     6     1   ar
    35    19    14   ar
    36    13     7   ar
    37    20    23    1
@<TRIPOS>MOLECULE
*****
 34 37 0 0 0
SMALL
GASTEIGER

@<TRIPOS>ATOM
      1 C          61.9655   87.6843   10.9365 C.ar    1  UNL1        0.0725
      2 C          62.6325   86.8407   11.9821 C.ar    1  UNL1        0.0077
      3 C          62.5227   85.3459   11.9221 C.ar    1  UNL1        0.0209
      4 C          61.7458   84.6948   10.8165 C.ar    1  UNL1        0.0989
      5 N          61.0787   85.5385    9.7708 N.ar    1  UNL1       -0.2422
      6 C          61.1885   87.0332    9.8309 C.ar    1  UNL1        0.1032
      7 C          63.1898   84.5023   12.9677 C.ar    1  UNL1        0.0215
      8 C          63.9953   85.1517   14.0537 C.ar    1  UNL1        0.0989
      9 N          64.6624   84.3081   15.0993 N.ar    1  UNL1       -0.2414
     10 C          64.5239   82.8150   15.0589 C.ar    1  UNL1        0.1102
     11 C          63.7184   82.1656   13.9729 C.ar    1  UNL1        0.0768
     12 CL         63.5799   80.6725   13.9325 Cl      1  UNL1       -0.0806
     13 C          63.0513   83.0093   12.9273 C.ar    1  UNL1        0.0146
     14 C          60.5215   87.8769    8.7853 C.ar    1  UNL1        0.0990
     15 C          59.7086   87.2281    7.7044 C.ar    1  UNL1        0.0207
     16 C          59.0416   88.0717    6.6588 C.ar    1  UNL1        0.0032
     17 C          59.1873   89.5642    6.6941 C.ar    1  UNL1        0.0207
     18 C          60.0002   90.2130    7.7750 C.ar    1  UNL1        0.0989
     19 N          60.6672   89.3694    8.8206 N.ar    1  UNL1       -0.2423
     20 N          63.1591   89.8827   10.2347 N.am    1  UNL1       -0.2956
     21 C          62.0753   89.1792   10.9966 C.2     1  UNL1        0.2476
     22 O          61.1014   89.9703   11.8184 O.2     1  UNL1       -0.2701
     23 H          63.7984   89.3634    9.6953 H       1  UNL1        0.1501
     24 C          63.2690   91.3774   10.2947 C.3     1  UNL1        0.1361
     25 C          66.3137   93.3033   12.9912 C.ar    1  UNL1        0.1916
     26 C          65.4586   92.1832   13.5050 C.ar    1  UNL1        0.0430
     27 C          64.4437   91.5412   12.6062 C.ar    1  UNL1        0.0198
     28 C          64.2839   92.0194   11.1935 C.ar    1  UNL1        0.0821
     29 N          65.1389   93.1396   10.6797 N.ar    1  UNL1       -0.2117
     30 C          66.1538   93.7815   11.5785 C.ar    1  UNL1        0.2598
     31 C          67.5288   93.4293   15.2841 C.3     1  UNL1        0.2527
     32 O          67.3285   93.9453   13.8900 O.3     1  UNL1       -0.4667
     33 O          67.0089   94.9018   11.0646 O.3     1  UNL1       -0.4541
     34 C          67.3659   94.9658    9.6091 C.3     1  UNL1        0.2543
@<TRIPOS>BOND
     1    31    32    1
     2    32    25    1
     3    25    26   ar
     4    26    27   ar
     5    27    28   ar
     6    28    24    1
     7    24    20    1
     8    20    21   am
     9    21    22    2
    10    21     1    1
    11     1     2   ar
    12     2     3   ar
    13     3     7    1
    14     7     8   ar
    15     8     9   ar
    16     9    10   ar
    17    10    11   ar
    18    11    12    1
    19    11    13   ar
    20     3     4   ar
    21     4     5   ar
    22     5     6   ar
    23     6    14    1
    24    14    15   ar
    25    15    16   ar
    26    16    17   ar
    27    17    18   ar
    28    18    19   ar
    29    28    29   ar
    30    29    30   ar
    31    30    33    1
    32    33    34    1
    33    30    25   ar
    34     6     1   ar
    35    19    14   ar
    36    13     7   ar
    37    20    23    1
@<TRIPOS>MOLECULE
*****
 34 37 0 0 0
SMALL
GASTEIGER

@<TRIPOS>ATOM
      1 C          64.1467   89.4179   13.8455 C.ar    1  UNL1        0.0725
      2 C          65.2395   90.2272   14.4785 C.ar    1  UNL1        0.0077
      3 C          65.6218   91.5560   13.8969 C.ar    1  UNL1        0.0209
      4 C          64.9113   92.0755   12.6823 C.ar    1  UNL1        0.0989
      5 N          63.8184   91.2661   12.0493 N.ar    1  UNL1       -0.2422
      6 C          63.4361   89.9374   12.6309 C.ar    1  UNL1        0.1032
      7 C          66.7146   92.3654   14.5299 C.ar    1  UNL1        0.0215
      8 C          66.8040   93.8396   14.2680 C.ar    1  UNL1        0.0989
      9 N          67.8968   94.6489   14.9010 N.ar    1  UNL1       -0.2414
     10 C          68.9003   93.9840   15.7960 C.ar    1  UNL1        0.1102
     11 C          68.8109   92.5097   16.0580 C.ar    1  UNL1        0.0768
     12 CL         69.8143   91.8448   16.9529 Cl      1  UNL1       -0.0806
     13 C          67.7180   91.7004   15.4249 C.ar    1  UNL1        0.0146
     14 C          62.3433   89.1280   11.9979 C.ar    1  UNL1        0.0990
     15 C          62.6813   88.0707   10.9889 C.ar    1  UNL1        0.0207
     16 C          61.5885   87.2613   10.3559 C.ar    1  UNL1        0.0032
     17 C          60.1578   87.5092   10.7318 C.ar    1  UNL1        0.0207
     18 C          59.8197   88.5665   11.7408 C.ar    1  UNL1        0.0989
     19 N          60.9125   89.3759   12.3738 N.ar    1  UNL1       -0.2423
     20 N          63.9725   86.8345   13.6318 N.am    1  UNL1       -0.2956
     21 C          63.7643   88.0891   14.4271 C.2     1  UNL1        0.2476
     22 O          63.1739   88.0150   15.8040 O.2     1  UNL1       -0.2701
     23 H          64.3600   86.8832   12.7281 H       1  UNL1        0.1501
     24 C          63.5902   85.5058   14.2133 C.3     1  UNL1        0.1361
     25 C          62.6896   82.0349   11.4945 C.ar    1  UNL1        0.1916
     26 C          63.2879   83.2911   10.9341 C.ar    1  UNL1        0.0430
     27 C          63.5881   84.4480   11.8404 C.ar    1  UNL1        0.0198
     28 C          63.2900   84.3488   13.3071 C.ar    1  UNL1        0.0821
     29 N          62.6917   83.0927   13.8675 N.ar    1  UNL1       -0.2117
     30 C          62.3915   81.9357   12.9612 C.ar    1  UNL1        0.2598
     31 C          63.4714   79.9008   10.2359 C.3     1  UNL1        0.2527
     32 O          62.3893   80.8780   10.5882 O.3     1  UNL1       -0.4667
     33 O          61.7931   80.6796   13.5217 O.3     1  UNL1       -0.4541
     34 C          60.4419   80.7177   14.1719 C.3     1  UNL1        0.2543
@<TRIPOS>BOND
     1    31    32    1
     2    32    25    1
     3    25    26   ar
     4    26    27   ar
     5    27    28   ar
     6    28    24    1
     7    24    20    1
     8    20    21   am
     9    21    22    2
    10    21     1    1
    11     1     2   ar
    12     2     3   ar
    13     3     7    1
    14     7     8   ar
    15     8     9   ar
    16     9    10   ar
    17    10    11   ar
    18    11    12    1
    19    11    13   ar
    20     3     4   ar
    21     4     5   ar
    22     5     6   ar
    23     6    14    1
    24    14    15   ar
    25    15    16   ar
    26    16    17   ar
    27    17    18   ar
    28    18    19   ar
    29    28    29   ar
    30    29    30   ar
    31    30    33    1
    32    33    34    1
    33    30    25   ar
    34     6     1   ar
    35    19    14   ar
    36    13     7   ar
    37    20    23    1
