@<TRIPOS>MOLECULE
*****
 31 35 0 0 0
SMALL
GASTEIGER

@<TRIPOS>ATOM
      1 C          63.4922   84.5071   12.4039 C.ar    1  UNL1        0.0436
      2 C          64.4207   83.3684   12.1023 C.ar    1  UNL1        0.0142
      3 C          64.5965   82.8982   10.6888 C.ar    1  UNL1        0.0010
      4 C          63.8438   83.5668    9.5769 C.ar    1  UNL1       -0.0031
      5 C          62.9153   84.7056    9.8785 C.ar    1  UNL1       -0.0089
      6 C          62.7395   85.1758   11.2919 C.ar    1  UNL1       -0.0101
      7 C          61.8110   86.3146   11.5936 C.3     1  UNL1        0.0447
      8 C          61.0583   86.9832   10.4817 C.3     1  UNL1        0.0782
      9 N          61.2341   86.5130    9.0681 N.3     1  UNL1       -0.2674
     10 C          60.4813   87.1816    7.9562 C.3     1  UNL1        0.0899
     11 C          62.1626   85.3742    8.7665 C.3     1  UNL1        0.0989
     12 C          62.7889   86.3880   18.0579 C.3     1  UNL1        0.0897
     13 N          62.9648   85.9178   16.6444 N.3     1  UNL1       -0.2686
     14 C          63.9694   86.5842   15.7518 C.3     1  UNL1        0.0938
     15 C          64.1452   86.1139   14.3383 C.3     1  UNL1        0.1081
     16 N          63.3164   84.9774   13.8174 N.pl3   1  UNL1       -0.3049
     17 C          62.3118   84.3110   14.7100 C.3     1  UNL1        0.1081
     18 C          62.1360   84.7812   16.1235 C.3     1  UNL1        0.0938
     19 C          60.1298   88.1220   10.7832 C.3     1  UNL1        0.0888
     20 N          60.5370   89.1825   11.7628 N.3     1  UNL1       -0.2667
     21 C          59.7100   89.4274   12.9900 C.3     1  UNL1        0.0899
     22 C          61.7713   89.9982   11.5150 C.3     1  UNL1        0.0978
     23 C          62.0516   90.5367   10.1434 C.3     1  UNL1        0.0224
     24 C          63.2859   91.3523    9.8958 C.3     1  UNL1        0.0065
     25 C          64.2398   91.6294   11.0197 C.3     1  UNL1        0.0277
     26 C          63.9594   91.0909   12.3913 C.ar    1  UNL1       -0.0073
     27 C          64.9133   91.3680   13.5153 C.ar    1  UNL1       -0.0015
     28 C          64.6330   90.8295   14.8869 C.ar    1  UNL1        0.0203
     29 C          63.3987   90.0139   15.1346 C.ar    1  UNL1        0.0985
     30 N          62.4448   89.7368   14.0107 N.ar    1  UNL1       -0.2471
     31 C          62.7252   90.2753   12.6390 C.ar    1  UNL1        0.0695
@<TRIPOS>BOND
     1    12    13    1
     2    13    14    1
     3    14    15    1
     4    15    16    1
     5    16     1    1
     6     1     2   ar
     7     2     3   ar
     8     3     4   ar
     9     4     5   ar
    10     5     6   ar
    11     6     7    1
    12     7     8    1
    13     8    19    1
    14    19    20    1
    15    20    21    1
    16    22    20    1
    17    22    23    1
    18    23    24    1
    19    24    25    1
    20    25    26    1
    21    26    27   ar
    22    27    28   ar
    23    28    29   ar
    24    29    30   ar
    25    30    31   ar
    26     8     9    1
    27     9    10    1
    28     9    11    1
    29    16    17    1
    30    17    18    1
    31    18    13    1
    32     6     1   ar
    33    31    22    1
    34    11     5    1
    35    31    26   ar
@<TRIPOS>MOLECULE
*****
 31 35 0 0 0
SMALL
GASTEIGER

@<TRIPOS>ATOM
      1 C          64.1324   90.1244   13.6478 C.ar    1  UNL1        0.0436
      2 C          65.2301   91.1372   13.7864 C.ar    1  UNL1        0.0142
      3 C          65.5048   92.1027   12.6718 C.ar    1  UNL1        0.0010
      4 C          64.6818   92.0554   11.4187 C.ar    1  UNL1       -0.0031
      5 C          63.5841   91.0426   11.2801 C.ar    1  UNL1       -0.0089
      6 C          63.3094   90.0771   12.3947 C.ar    1  UNL1       -0.0101
      7 C          62.2116   89.0643   12.2561 C.3     1  UNL1        0.0447
      8 C          61.3886   89.0170   11.0030 C.3     1  UNL1        0.0782
      9 N          61.6633   89.9826    9.8884 N.3     1  UNL1       -0.2674
     10 C          60.8403   89.9353    8.6352 C.3     1  UNL1        0.0899
     11 C          62.7610   90.9953   10.0269 C.3     1  UNL1        0.0989
     12 C          63.0334   86.2624   18.1062 C.3     1  UNL1        0.0897
     13 N          63.3082   87.2278   16.9916 N.3     1  UNL1       -0.2686
     14 C          63.9797   86.7536   15.7370 C.3     1  UNL1        0.0938
     15 C          64.2545   87.7191   14.6224 C.3     1  UNL1        0.1081
     16 N          63.8577   89.1589   14.7624 N.pl3   1  UNL1       -0.3049
     17 C          63.1861   89.6331   16.0171 C.3     1  UNL1        0.1081
     18 C          62.9114   88.6677   17.1317 C.3     1  UNL1        0.0938
     19 C          60.2908   88.0042   10.8644 C.3     1  UNL1        0.0888
     20 N          60.2517   87.0995    9.6687 N.3     1  UNL1       -0.2667
     21 C          59.0856   87.1514    8.7267 C.3     1  UNL1        0.0899
     22 C          61.3788   86.1426    9.4149 C.3     1  UNL1        0.0978
     23 C          61.8432   85.8860    8.0120 C.3     1  UNL1        0.0224
     24 C          62.9702   84.9292    7.7583 C.3     1  UNL1        0.0065
     25 C          63.6328   84.2291    8.9076 C.3     1  UNL1        0.0277
     26 C          63.1684   84.4858   10.3106 C.ar    1  UNL1       -0.0073
     27 C          63.8310   83.7858   11.4599 C.ar    1  UNL1       -0.0015
     28 C          63.3665   84.0425   12.8628 C.ar    1  UNL1        0.0203
     29 C          62.2395   84.9993   13.1166 C.ar    1  UNL1        0.0985
     30 N          61.5769   85.6993   11.9673 N.ar    1  UNL1       -0.2471
     31 C          62.0414   85.4426   10.5642 C.ar    1  UNL1        0.0695
@<TRIPOS>BOND
     1    12    13    1
     2    13    14    1
     3    14    15    1
     4    15    16    1
     5    16     1    1
     6     1     2   ar
     7     2     3   ar
     8     3     4   ar
     9     4     5   ar
    10     5     6   ar
    11     6     7    1
    12     7     8    1
    13     8    19    1
    14    19    20    1
    15    20    21    1
    16    22    20    1
    17    22    23    1
    18    23    24    1
    19    24    25    1
    20    25    26    1
    21    26    27   ar
    22    27    28   ar
    23    28    29   ar
    24    29    30   ar
    25    30    31   ar
    26     8     9    1
    27     9    10    1
    28     9    11    1
    29    16    17    1
    30    17    18    1
    31    18    13    1
    32     6     1   ar
    33    31    22    1
    34    11     5    1
    35    31    26   ar
@<TRIPOS>MOLECULE
*****
 31 35 0 0 0
SMALL
GASTEIGER

@<TRIPOS>ATOM
      1 C          66.6496   93.1261   13.5668 C.ar    1  UNL1        0.0436
      2 C          67.7107   93.5465   14.5399 C.ar    1  UNL1        0.0142
      3 C          67.6494   93.0802   15.9642 C.ar    1  UNL1        0.0010
      4 C          66.5268   92.1934   16.4154 C.ar    1  UNL1       -0.0031
      5 C          65.4656   91.7730   15.4422 C.ar    1  UNL1       -0.0089
      6 C          65.5270   92.2394   14.0179 C.ar    1  UNL1       -0.0101
      7 C          64.4658   91.8190   13.0446 C.3     1  UNL1        0.0447
      8 C          63.3432   90.9322   13.4958 C.3     1  UNL1        0.0782
      9 N          63.2819   90.4659   14.9202 N.3     1  UNL1       -0.2674
     10 C          62.1593   89.5791   15.3713 C.3     1  UNL1        0.0899
     11 C          64.3431   90.8862   15.8933 C.3     1  UNL1        0.0989
     12 C          66.8949   94.9914    7.8693 C.3     1  UNL1        0.0897
     13 N          66.8336   94.5251    9.2936 N.3     1  UNL1       -0.2686
     14 C          66.2870   95.4314   10.3566 C.3     1  UNL1        0.0938
     15 C          66.2257   94.9650   11.7810 C.3     1  UNL1        0.1081
     16 N          66.7109   93.5925   12.1424 N.pl3   1  UNL1       -0.3049
     17 C          67.2574   92.6862   11.0794 C.3     1  UNL1        0.1081
     18 C          67.3188   93.1525    9.6550 C.3     1  UNL1        0.0938
     19 C          62.2820   90.5118   12.5226 C.3     1  UNL1        0.0888
     20 N          62.6681   89.8723   11.2218 N.3     1  UNL1       -0.2667
     21 C          63.4266   90.6598   10.1949 C.3     1  UNL1        0.0899
     22 C          62.2957   88.4453   10.9480 C.3     1  UNL1        0.0978
     23 C          62.8956   87.3428   11.7693 C.3     1  UNL1        0.0224
     24 C          62.5231   85.9158   11.4954 C.3     1  UNL1        0.0065
     25 C          61.5508   85.5914   10.4002 C.3     1  UNL1        0.0277
     26 C          60.9509   86.6939    9.5790 C.ar    1  UNL1       -0.0073
     27 C          59.9786   86.3695    8.4838 C.ar    1  UNL1       -0.0015
     28 C          59.3787   87.4720    7.6625 C.ar    1  UNL1        0.0203
     29 C          59.7512   88.8990    7.9364 C.ar    1  UNL1        0.0985
     30 N          60.7235   89.2235    9.0315 N.ar    1  UNL1       -0.2471
     31 C          61.3234   88.1209    9.8528 C.ar    1  UNL1        0.0695
@<TRIPOS>BOND
     1    12    13    1
     2    13    14    1
     3    14    15    1
     4    15    16    1
     5    16     1    1
     6     1     2   ar
     7     2     3   ar
     8     3     4   ar
     9     4     5   ar
    10     5     6   ar
    11     6     7    1
    12     7     8    1
    13     8    19    1
    14    19    20    1
    15    20    21    1
    16    22    20    1
    17    22    23    1
    18    23    24    1
    19    24    25    1
    20    25    26    1
    21    26    27   ar
    22    27    28   ar
    23    28    29   ar
    24    29    30   ar
    25    30    31   ar
    26     8     9    1
    27     9    10    1
    28     9    11    1
    29    16    17    1
    30    17    18    1
    31    18    13    1
    32     6     1   ar
    33    31    22    1
    34    11     5    1
    35    31    26   ar
@<TRIPOS>MOLECULE
*****
 31 35 0 0 0
SMALL
GASTEIGER

@<TRIPOS>ATOM
      1 C          62.0540   86.2283    9.3440 C.ar    1  UNL1        0.0436
      2 C          62.1455   86.0930    7.8530 C.ar    1  UNL1        0.0142
      3 C          62.8083   84.8908    7.2483 C.ar    1  UNL1        0.0010
      4 C          63.3795   83.8241    8.1347 C.ar    1  UNL1       -0.0031
      5 C          63.2880   83.9594    9.6258 C.ar    1  UNL1       -0.0089
      6 C          62.6253   85.1616   10.2304 C.ar    1  UNL1       -0.0101
      7 C          62.5337   85.2970   11.7215 C.3     1  UNL1        0.0447
      8 C          63.1049   84.2302   12.6079 C.3     1  UNL1        0.0782
      9 N          63.7677   83.0280   12.0032 N.3     1  UNL1       -0.2674
     10 C          64.3389   81.9613   12.8896 C.3     1  UNL1        0.0899
     11 C          63.8592   82.8927   10.5122 C.3     1  UNL1        0.0989
     12 C          59.4030   91.0369   11.7628 C.3     1  UNL1        0.0897
     13 N          60.0658   89.8348   11.1581 N.3     1  UNL1       -0.2686
     14 C          61.4933   89.9142   10.7043 C.3     1  UNL1        0.0938
     15 C          62.1560   88.7120   10.0996 C.3     1  UNL1        0.1081
     16 N          61.3913   87.4305    9.9487 N.pl3   1  UNL1       -0.3049
     17 C          59.9638   87.3511   10.4025 C.3     1  UNL1        0.1081
     18 C          59.3010   88.5531   11.0072 C.3     1  UNL1        0.0938
     19 C          63.0134   84.3656   14.0990 C.3     1  UNL1        0.0888
     20 N          64.0544   85.1449   14.8466 N.3     1  UNL1       -0.2667
     21 C          65.5098   84.9106   14.5692 C.3     1  UNL1        0.0899
     22 C          63.6400   86.1586   15.8717 C.3     1  UNL1        0.0978
     23 C          63.1554   85.7088   17.2181 C.3     1  UNL1        0.0224
     24 C          62.7410   86.7225   18.2431 C.3     1  UNL1        0.0065
     25 C          62.8112   88.1860   17.9217 C.3     1  UNL1        0.0277
     26 C          63.2958   88.6358   16.5753 C.ar    1  UNL1       -0.0073
     27 C          63.3660   90.0993   16.2539 C.ar    1  UNL1       -0.0015
     28 C          63.8506   90.5491   14.9075 C.ar    1  UNL1        0.0203
     29 C          64.2651   89.5353   13.8824 C.ar    1  UNL1        0.0985
     30 N          64.1949   88.0719   14.2038 N.ar    1  UNL1       -0.2471
     31 C          63.7102   87.6221   15.5503 C.ar    1  UNL1        0.0695
@<TRIPOS>BOND
     1    12    13    1
     2    13    14    1
     3    14    15    1
     4    15    16    1
     5    16     1    1
     6     1     2   ar
     7     2     3   ar
     8     3     4   ar
     9     4     5   ar
    10     5     6   ar
    11     6     7    1
    12     7     8    1
    13     8    19    1
    14    19    20    1
    15    20    21    1
    16    22    20    1
    17    22    23    1
    18    23    24    1
    19    24    25    1
    20    25    26    1
    21    26    27   ar
    22    27    28   ar
    23    28    29   ar
    24    29    30   ar
    25    30    31   ar
    26     8     9    1
    27     9    10    1
    28     9    11    1
    29    16    17    1
    30    17    18    1
    31    18    13    1
    32     6     1   ar
    33    31    22    1
    34    11     5    1
    35    31    26   ar
@<TRIPOS>MOLECULE
*****
 31 35 0 0 0
SMALL
GASTEIGER

@<TRIPOS>ATOM
      1 C          66.6583   93.1542   13.5853 C.ar    1  UNL1        0.0436
      2 C          67.7101   93.6074   14.5539 C.ar    1  UNL1        0.0142
      3 C          67.6515   93.1649   15.9859 C.ar    1  UNL1        0.0010
      4 C          66.5410   92.2693   16.4493 C.ar    1  UNL1       -0.0031
      5 C          65.4892   91.8161   15.4807 C.ar    1  UNL1       -0.0089
      6 C          65.5478   92.2586   14.0487 C.ar    1  UNL1       -0.0101
      7 C          64.4960   91.8054   13.0799 C.3     1  UNL1        0.0447
      8 C          63.3855   90.9098   13.5433 C.3     1  UNL1        0.0782
      9 N          63.3269   90.4673   14.9755 N.3     1  UNL1       -0.2674
     10 C          62.2165   89.5717   15.4389 C.3     1  UNL1        0.0899
     11 C          64.3788   90.9205   15.9441 C.3     1  UNL1        0.0989
     12 C          66.8926   94.9242    7.8570 C.3     1  UNL1        0.0897
     13 N          66.8341   94.4817    9.2890 N.3     1  UNL1       -0.2686
     14 C          67.3309   93.1197    9.6741 C.3     1  UNL1        0.0938
     15 C          67.2723   92.6773   11.1062 C.3     1  UNL1        0.1081
     16 N          66.7169   93.5967   12.1532 N.pl3   1  UNL1       -0.3049
     17 C          66.2200   94.9586   11.7681 C.3     1  UNL1        0.1081
     18 C          66.2786   95.4011   10.3360 C.3     1  UNL1        0.0938
     19 C          62.3337   90.4566   12.5747 C.3     1  UNL1        0.0888
     20 N          62.7322   89.9176   11.2328 N.3     1  UNL1       -0.2667
     21 C          63.5631   90.7537   10.3053 C.3     1  UNL1        0.0899
     22 C          62.2996   88.5423   10.8185 C.3     1  UNL1        0.0978
     23 C          61.4909   88.3550    9.5692 C.3     1  UNL1        0.0224
     24 C          61.0584   86.9797    9.1549 C.3     1  UNL1        0.0065
     25 C          61.4347   85.7918    9.9900 C.3     1  UNL1        0.0277
     26 C          62.2434   85.9791   11.2393 C.ar    1  UNL1       -0.0073
     27 C          62.6197   84.7912   12.0744 C.ar    1  UNL1       -0.0015
     28 C          63.4284   84.9786   13.3237 C.ar    1  UNL1        0.0203
     29 C          63.8609   86.3539   13.7380 C.ar    1  UNL1        0.0985
     30 N          63.4847   87.5418   12.9029 N.ar    1  UNL1       -0.2471
     31 C          62.6759   87.3544   11.6536 C.ar    1  UNL1        0.0695
@<TRIPOS>BOND
     1    12    13    1
     2    13    14    1
     3    14    15    1
     4    15    16    1
     5    16     1    1
     6     1     2   ar
     7     2     3   ar
     8     3     4   ar
     9     4     5   ar
    10     5     6   ar
    11     6     7    1
    12     7     8    1
    13     8    19    1
    14    19    20    1
    15    20    21    1
    16    22    20    1
    17    22    23    1
    18    23    24    1
    19    24    25    1
    20    25    26    1
    21    26    27   ar
    22    27    28   ar
    23    28    29   ar
    24    29    30   ar
    25    30    31   ar
    26     8     9    1
    27     9    10    1
    28     9    11    1
    29    16    17    1
    30    17    18    1
    31    18    13    1
    32     6     1   ar
    33    31    22    1
    34    11     5    1
    35    31    26   ar
