@<TRIPOS>MOLECULE
*****
 47 53 0 0 0
SMALL
GASTEIGER

@<TRIPOS>ATOM
      1 C          62.7657   80.9176   12.3585 C.ar    1  UNL1        0.1736
      2 C          62.2686   82.1956   11.7506 C.ar    1  UNL1        0.0548
      3 C          62.3124   83.4692   12.5417 C.ar    1  UNL1        0.0569
      4 C          62.8533   83.4649   13.9408 C.ar    1  UNL1        0.0560
      5 C          63.3504   82.1869   14.5488 C.ar    1  UNL1        0.0444
      6 C          63.3067   80.9132   13.7577 C.ar    1  UNL1        0.1726
      7 C          62.8971   84.7386   14.7319 C.ar    1  UNL1        0.2075
      8 N          62.3228   84.9456   16.1021 N.ar    1  UNL1       -0.1074
      9 N          62.5936   86.3638   16.5087 N.ar    1  UNL1       -0.0406
     10 N          63.3353   87.0333   15.3899 N.ar    1  UNL1       -0.1285
     11 N          63.5229   86.0288   14.2917 N.ar    1  UNL1       -0.1253
     12 C          63.8067   88.4572   15.3723 C.ar    1  UNL1        0.1045
     13 C          63.4019   89.3949   16.4709 C.ar    1  UNL1        0.0206
     14 C          63.8732   90.8188   16.4532 C.ar    1  UNL1       -0.0026
     15 C          64.7494   91.3050   15.3371 C.ar    1  UNL1       -0.0207
     16 C          65.1542   90.3672   14.2385 C.ar    1  UNL1       -0.0026
     17 C          64.6829   88.9433   14.2561 C.ar    1  UNL1        0.0206
     18 C          65.2209   92.7288   15.3193 C.3     1  UNL1        0.0437
     19 C          66.5840   93.0609   14.7885 C.3     1  UNL1        0.0772
     20 N          66.7667   93.3712   13.3324 N.3     1  UNL1       -0.2657
     21 C          66.2606   94.6675   12.7726 C.3     1  UNL1        0.0972
     22 C          66.4433   94.9778   11.3164 C.3     1  UNL1        0.1246
     23 N          67.1321   93.9918   10.4201 N.ar    1  UNL1       -0.3098
     24 C          67.4542   94.0215    8.9554 C.ar    1  UNL1        0.1784
     25 N          68.1594   92.7434    8.6100 N.ar    1  UNL1       -0.2226
     26 C          68.2731   91.9240    9.8612 C.ar    1  UNL1        0.1147
     27 C          67.6382   92.6955   10.9799 C.ar    1  UNL1        0.0739
     28 C          67.4555   92.3852   12.4360 C.3     1  UNL1        0.1183
     29 N          61.8153   84.7472   11.9338 N.am    1  UNL1       -0.2777
     30 C          62.3085   85.1773   10.5840 C.2     1  UNL1        0.2843
     31 O          63.2988   84.3293    9.8422 O.2     1  UNL1       -0.2665
     32 H          61.1653   85.3037   12.4207 H       1  UNL1        0.1553
     33 C          61.8113   86.4553    9.9761 C.ar    1  UNL1        0.2017
     34 C          62.3393   87.7724   10.4626 C.ar    1  UNL1        0.0843
     35 C          61.8422   89.0503    9.8546 C.ar    1  UNL1        0.2018
     36 O          62.3702   90.3673   10.3411 O.2     1  UNL1       -0.2864
     37 C          60.8171   89.0113    8.7603 C.ar    1  UNL1        0.0735
     38 C          60.3200   90.2893    8.1524 C.ar    1  UNL1        0.0062
     39 C          59.2949   90.2502    7.0580 C.ar    1  UNL1        0.0003
     40 C          58.7669   88.9332    6.5716 C.ar    1  UNL1        0.0031
     41 C          59.2640   87.6553    7.1795 C.ar    1  UNL1        0.0376
     42 C          60.2891   87.6943    8.2738 C.ar    1  UNL1        0.1485
     43 O          60.7862   86.4162    8.8818 O.2     1  UNL1       -0.4487
     44 C          62.7971   79.6882   10.0700 C.3     1  UNL1        0.2526
     45 O          62.7219   79.6439   11.5674 O.3     1  UNL1       -0.4683
     46 O          63.8038   79.6352   14.3656 O.3     1  UNL1       -0.4684
     47 C          62.8619   78.4859   14.5699 C.3     1  UNL1        0.2526
@<TRIPOS>BOND
     1    44    45    1
     2    45     1    1
     3     1     2   ar
     4     2     3   ar
     5     3    29    1
     6    29    30   am
     7    30    31    2
     8    30    33    1
     9    33    34   ar
    10    34    35   ar
    11    35    36    2
    12    35    37   ar
    13    37    38   ar
    14    38    39   ar
    15    39    40   ar
    16    40    41   ar
    17    41    42   ar
    18    42    43   ar
    19     3     4   ar
    20     4     7    1
    21     7     8   ar
    22     8     9   ar
    23     9    10   ar
    24    10    12    1
    25    12    13   ar
    26    13    14   ar
    27    14    15   ar
    28    15    18    1
    29    18    19    1
    30    19    20    1
    31    20    21    1
    32    21    22    1
    33    22    23    1
    34    23    24   ar
    35    24    25   ar
    36    25    26   ar
    37    26    27   ar
    38    27    28    1
    39    15    16   ar
    40    16    17   ar
    41    10    11   ar
    42     4     5   ar
    43     5     6   ar
    44     6    46    1
    45    46    47    1
    46     6     1   ar
    47    43    33   ar
    48    11     7   ar
    49    42    37   ar
    50    17    12   ar
    51    28    20    1
    52    27    23   ar
    53    29    32    1
@<TRIPOS>MOLECULE
*****
 47 53 0 0 0
SMALL
GASTEIGER

@<TRIPOS>ATOM
      1 C          63.4998   84.9098   15.5198 C.ar    1  UNL1        0.1736
      2 C          63.8789   86.2050   14.8651 C.ar    1  UNL1        0.0548
      3 C          63.4968   86.4639   13.4379 C.ar    1  UNL1        0.0569
      4 C          62.7358   85.4276   12.6653 C.ar    1  UNL1        0.0560
      5 C          62.3566   84.1324   13.3200 C.ar    1  UNL1        0.0444
      6 C          62.7386   83.8734   14.7473 C.ar    1  UNL1        0.1726
      7 C          62.3537   85.6866   11.2381 C.ar    1  UNL1        0.2075
      8 N          62.7651   84.8652   10.0523 N.ar    1  UNL1       -0.1074
      9 N          62.1589   85.4833    8.8274 N.ar    1  UNL1       -0.0406
     10 N          61.3729   86.6868    9.2561 N.ar    1  UNL1       -0.1285
     11 N          61.4932   86.8125   10.7460 N.ar    1  UNL1       -0.1253
     12 C          60.6018   87.6037    8.3535 C.ar    1  UNL1        0.1045
     13 C          59.8006   87.0391    7.2180 C.ar    1  UNL1        0.0206
     14 C          59.0295   87.9559    6.3154 C.ar    1  UNL1       -0.0026
     15 C          59.0596   89.4374    6.5482 C.ar    1  UNL1       -0.0207
     16 C          59.8608   90.0020    7.6837 C.ar    1  UNL1       -0.0026
     17 C          60.6319   89.0852    8.5863 C.ar    1  UNL1        0.0206
     18 C          58.2886   90.3544    5.6456 C.3     1  UNL1        0.0437
     19 C          58.7894   91.7438    5.3831 C.3     1  UNL1        0.0772
     20 N          59.8303   91.9791    4.3290 N.3     1  UNL1       -0.2657
     21 C          61.2061   91.4041    4.4920 C.3     1  UNL1        0.0972
     22 C          62.2470   91.6395    3.4380 C.3     1  UNL1        0.1246
     23 N          61.9122   92.4498    2.2209 N.ar    1  UNL1       -0.3098
     24 C          62.7251   92.8463    1.0242 C.ar    1  UNL1        0.1784
     25 N          61.8517   93.6664    0.1217 N.ar    1  UNL1       -0.2226
     26 C          60.4991   93.7767    0.7606 C.ar    1  UNL1        0.1147
     27 C          60.5364   93.0249    2.0579 C.ar    1  UNL1        0.0739
     28 C          59.4955   92.7895    3.1120 C.3     1  UNL1        0.1183
     29 N          63.8759   87.7591   12.7831 N.am    1  UNL1       -0.2777
     30 C          63.8412   89.0357   13.5701 C.2     1  UNL1        0.2843
     31 O          63.4274   89.0170   15.0118 O.2     1  UNL1       -0.2665
     32 H          64.1475   87.7714   11.8369 H       1  UNL1        0.1553
     33 C          64.2203   90.3309   12.9154 C.ar    1  UNL1        0.2017
     34 C          63.7114   90.6541   11.5418 C.ar    1  UNL1        0.0843
     35 C          64.0905   91.9493   10.8871 C.ar    1  UNL1        0.2018
     36 O          63.5817   92.2724    9.5136 O.2     1  UNL1       -0.2864
     37 C          64.9784   92.9214   11.6059 C.ar    1  UNL1        0.0735
     38 C          65.3575   94.2166   10.9512 C.ar    1  UNL1        0.0062
     39 C          66.2454   95.1886   11.6700 C.ar    1  UNL1        0.0003
     40 C          66.7543   94.8655   13.0435 C.ar    1  UNL1        0.0031
     41 C          66.3752   93.5703   13.6982 C.ar    1  UNL1        0.0376
     42 C          65.4873   92.5982   12.9794 C.ar    1  UNL1        0.1485
     43 O          65.1082   91.3030   13.6342 O.2     1  UNL1       -0.4487
     44 C          63.4739   85.6167   18.0197 C.3     1  UNL1        0.2526
     45 O          63.8818   84.6508   16.9471 O.3     1  UNL1       -0.4683
     46 O          62.3596   82.5782   15.4020 O.3     1  UNL1       -0.4684
     47 C          61.8969   81.4223   14.5655 C.3     1  UNL1        0.2526
@<TRIPOS>BOND
     1    44    45    1
     2    45     1    1
     3     1     2   ar
     4     2     3   ar
     5     3    29    1
     6    29    30   am
     7    30    31    2
     8    30    33    1
     9    33    34   ar
    10    34    35   ar
    11    35    36    2
    12    35    37   ar
    13    37    38   ar
    14    38    39   ar
    15    39    40   ar
    16    40    41   ar
    17    41    42   ar
    18    42    43   ar
    19     3     4   ar
    20     4     7    1
    21     7     8   ar
    22     8     9   ar
    23     9    10   ar
    24    10    12    1
    25    12    13   ar
    26    13    14   ar
    27    14    15   ar
    28    15    18    1
    29    18    19    1
    30    19    20    1
    31    20    21    1
    32    21    22    1
    33    22    23    1
    34    23    24   ar
    35    24    25   ar
    36    25    26   ar
    37    26    27   ar
    38    27    28    1
    39    15    16   ar
    40    16    17   ar
    41    10    11   ar
    42     4     5   ar
    43     5     6   ar
    44     6    46    1
    45    46    47    1
    46     6     1   ar
    47    43    33   ar
    48    11     7   ar
    49    42    37   ar
    50    17    12   ar
    51    28    20    1
    52    27    23   ar
    53    29    32    1
@<TRIPOS>MOLECULE
*****
 47 53 0 0 0
SMALL
GASTEIGER

@<TRIPOS>ATOM
      1 C          62.9221   80.7519   12.0753 C.ar    1  UNL1        0.1736
      2 C          63.0112   82.1173   11.4607 C.ar    1  UNL1        0.0548
      3 C          63.0698   83.3324   12.3383 C.ar    1  UNL1        0.0569
      4 C          63.0392   83.1821   13.8304 C.ar    1  UNL1        0.0560
      5 C          62.9501   81.8167   14.4450 C.ar    1  UNL1        0.0444
      6 C          62.8915   80.6016   13.5675 C.ar    1  UNL1        0.1726
      7 C          63.0978   84.3972   14.7079 C.ar    1  UNL1        0.2075
      8 N          62.6366   84.4787   16.1329 N.ar    1  UNL1       -0.1074
      9 N          62.8816   85.8760   16.6203 N.ar    1  UNL1       -0.0406
     10 N          63.4943   86.6581   15.4965 N.ar    1  UNL1       -0.1285
     11 N          63.6279   85.7442   14.3145 N.ar    1  UNL1       -0.1253
     12 C          63.9018   88.1009   15.5458 C.ar    1  UNL1        0.1045
     13 C          64.9917   88.6036   14.6461 C.ar    1  UNL1        0.0206
     14 C          65.3992   90.0463   14.6955 C.ar    1  UNL1       -0.0026
     15 C          64.7168   90.9863   15.6446 C.ar    1  UNL1       -0.0207
     16 C          63.6270   90.4836   16.5443 C.ar    1  UNL1       -0.0026
     17 C          63.2195   89.0408   16.4949 C.ar    1  UNL1        0.0206
     18 C          65.1242   92.4291   15.6940 C.3     1  UNL1        0.0437
     19 C          66.4811   92.8423   15.2059 C.3     1  UNL1        0.0772
     20 N          66.7184   93.0541   13.7400 N.3     1  UNL1       -0.2657
     21 C          67.4639   92.0240   12.9445 C.3     1  UNL1        0.0972
     22 C          67.7012   92.2357   11.4786 C.3     1  UNL1        0.1246
     23 N          67.1930   93.4777   10.8082 N.ar    1  UNL1       -0.3098
     24 C          67.2746   93.9575    9.3894 C.ar    1  UNL1        0.1784
     25 N          66.5795   95.2842    9.3081 N.ar    1  UNL1       -0.2226
     26 C          66.0683   95.6243   10.6767 C.ar    1  UNL1        0.1147
     27 C          66.4474   94.5078   11.6038 C.ar    1  UNL1        0.0739
     28 C          66.2101   94.2961   13.0697 C.3     1  UNL1        0.1183
     29 N          63.1589   84.6978   11.7237 N.am    1  UNL1       -0.2777
     30 C          62.0467   85.6843   11.9235 C.2     1  UNL1        0.2843
     31 O          60.8453   85.3053   12.7378 O.2     1  UNL1       -0.2665
     32 H          63.9475   84.9465   11.1893 H       1  UNL1        0.1553
     33 C          62.1358   87.0497   11.3089 C.ar    1  UNL1        0.2017
     34 C          61.3540   87.3664   10.0685 C.ar    1  UNL1        0.0843
     35 C          61.4432   88.7318    9.4540 C.ar    1  UNL1        0.2018
     36 O          60.6614   89.0484    8.2136 O.2     1  UNL1       -0.2864
     37 C          62.3141   89.7805   10.0798 C.ar    1  UNL1        0.0735
     38 C          62.4033   91.1459    9.4652 C.ar    1  UNL1        0.0062
     39 C          63.2742   92.1946   10.0910 C.ar    1  UNL1        0.0003
     40 C          64.0560   91.8780   11.3313 C.ar    1  UNL1        0.0031
     41 C          63.9669   90.5126   11.9459 C.ar    1  UNL1        0.0376
     42 C          63.0959   89.4639   11.3201 C.ar    1  UNL1        0.1485
     43 O          63.0068   88.0984   11.9347 O.2     1  UNL1       -0.4487
     44 C          62.8652   79.6886    9.7054 C.3     1  UNL1        0.2526
     45 O          62.8635   79.5368   11.1977 O.3     1  UNL1       -0.4683
     46 O          62.8023   79.2362   14.1820 O.3     1  UNL1       -0.4684
     47 C          61.5037   78.4860   14.1573 C.3     1  UNL1        0.2526
@<TRIPOS>BOND
     1    44    45    1
     2    45     1    1
     3     1     2   ar
     4     2     3   ar
     5     3    29    1
     6    29    30   am
     7    30    31    2
     8    30    33    1
     9    33    34   ar
    10    34    35   ar
    11    35    36    2
    12    35    37   ar
    13    37    38   ar
    14    38    39   ar
    15    39    40   ar
    16    40    41   ar
    17    41    42   ar
    18    42    43   ar
    19     3     4   ar
    20     4     7    1
    21     7     8   ar
    22     8     9   ar
    23     9    10   ar
    24    10    12    1
    25    12    13   ar
    26    13    14   ar
    27    14    15   ar
    28    15    18    1
    29    18    19    1
    30    19    20    1
    31    20    21    1
    32    21    22    1
    33    22    23    1
    34    23    24   ar
    35    24    25   ar
    36    25    26   ar
    37    26    27   ar
    38    27    28    1
    39    15    16   ar
    40    16    17   ar
    41    10    11   ar
    42     4     5   ar
    43     5     6   ar
    44     6    46    1
    45    46    47    1
    46     6     1   ar
    47    43    33   ar
    48    11     7   ar
    49    42    37   ar
    50    17    12   ar
    51    28    20    1
    52    27    23   ar
    53    29    32    1
@<TRIPOS>MOLECULE
*****
 47 53 0 0 0
SMALL
GASTEIGER

@<TRIPOS>ATOM
      1 C          63.8923   82.9302   12.9519 C.ar    1  UNL1        0.1736
      2 C          64.3099   84.3328   13.2807 C.ar    1  UNL1        0.0548
      3 C          63.5199   85.4937   12.7534 C.ar    1  UNL1        0.0569
      4 C          62.3122   85.2520   11.8972 C.ar    1  UNL1        0.0560
      5 C          61.8946   83.8494   11.5683 C.ar    1  UNL1        0.0444
      6 C          62.6846   82.6884   12.0956 C.ar    1  UNL1        0.1726
      7 C          61.5222   86.4130   11.3698 C.ar    1  UNL1        0.2075
      8 N          60.8068   87.4406   12.1958 N.ar    1  UNL1       -0.1074
      9 N          60.1513   88.4128   11.2604 N.ar    1  UNL1       -0.0406
     10 N          60.4616   87.9861    9.8563 N.ar    1  UNL1       -0.1285
     11 N          61.3088   86.7501    9.9238 N.ar    1  UNL1       -0.1253
     12 C          60.0048   88.6745    8.6043 C.ar    1  UNL1        0.1045
     13 C          60.4423   90.0807    8.3192 C.ar    1  UNL1        0.0206
     14 C          59.9856   90.7690    7.0672 C.ar    1  UNL1       -0.0026
     15 C          59.0912   90.0513    6.1003 C.ar    1  UNL1       -0.0207
     16 C          58.6536   88.6451    6.3854 C.ar    1  UNL1       -0.0026
     17 C          59.1104   87.9567    7.6374 C.ar    1  UNL1        0.0206
     18 C          58.6343   90.7395    4.8483 C.3     1  UNL1        0.0437
     19 C          59.0707   92.1462    4.5639 C.3     1  UNL1        0.0772
     20 N          60.2468   92.4001    3.6682 N.3     1  UNL1       -0.2657
     21 C          61.5282   91.6505    3.8824 C.3     1  UNL1        0.0972
     22 C          62.7044   91.9044    2.9867 C.3     1  UNL1        0.1246
     23 N          62.5990   92.9079    1.8768 N.ar    1  UNL1       -0.3098
     24 C          63.5830   93.3666    0.8418 C.ar    1  UNL1        0.1784
     25 N          62.9097   94.3998   -0.0121 N.ar    1  UNL1       -0.2226
     26 C          61.5096   94.5795    0.4952 C.ar    1  UNL1        0.1147
     27 C          61.3176   93.6575    1.6626 C.ar    1  UNL1        0.0739
     28 C          60.1415   93.4036    2.5583 C.3     1  UNL1        0.1183
     29 N          63.9375   86.8964   13.0822 N.am    1  UNL1       -0.2777
     30 C          63.9503   87.3602   14.5087 C.2     1  UNL1        0.2843
     31 O          63.5454   86.4214   15.6063 O.2     1  UNL1       -0.2665
     32 H          64.2033   87.5125   12.3618 H       1  UNL1        0.1553
     33 C          64.3679   88.7628   14.8375 C.ar    1  UNL1        0.2017
     34 C          63.4926   89.6233   15.6999 C.ar    1  UNL1        0.0843
     35 C          63.9103   91.0260   16.0287 C.ar    1  UNL1        0.2018
     36 O          63.0351   91.8864   16.8911 O.2     1  UNL1       -0.2864
     37 C          65.2031   91.5682   15.4953 C.ar    1  UNL1        0.0735
     38 C          65.6207   92.9708   15.8241 C.ar    1  UNL1        0.0062
     39 C          66.9135   93.5130   15.2907 C.ar    1  UNL1        0.0003
     40 C          67.7888   92.6526   14.4283 C.ar    1  UNL1        0.0031
     41 C          67.3711   91.2500   14.0995 C.ar    1  UNL1        0.0376
     42 C          66.0783   90.7078   14.6330 C.ar    1  UNL1        0.1485
     43 O          65.6607   89.3051   14.3041 O.2     1  UNL1       -0.4487
     44 C          63.9851   80.6513   14.1960 C.3     1  UNL1        0.2526
     45 O          64.6824   81.7693   13.4792 O.3     1  UNL1       -0.4683
     46 O          62.2670   81.2858   11.7668 O.3     1  UNL1       -0.4684
     47 C          62.9473   80.5416   10.6562 C.3     1  UNL1        0.2526
@<TRIPOS>BOND
     1    44    45    1
     2    45     1    1
     3     1     2   ar
     4     2     3   ar
     5     3    29    1
     6    29    30   am
     7    30    31    2
     8    30    33    1
     9    33    34   ar
    10    34    35   ar
    11    35    36    2
    12    35    37   ar
    13    37    38   ar
    14    38    39   ar
    15    39    40   ar
    16    40    41   ar
    17    41    42   ar
    18    42    43   ar
    19     3     4   ar
    20     4     7    1
    21     7     8   ar
    22     8     9   ar
    23     9    10   ar
    24    10    12    1
    25    12    13   ar
    26    13    14   ar
    27    14    15   ar
    28    15    18    1
    29    18    19    1
    30    19    20    1
    31    20    21    1
    32    21    22    1
    33    22    23    1
    34    23    24   ar
    35    24    25   ar
    36    25    26   ar
    37    26    27   ar
    38    27    28    1
    39    15    16   ar
    40    16    17   ar
    41    10    11   ar
    42     4     5   ar
    43     5     6   ar
    44     6    46    1
    45    46    47    1
    46     6     1   ar
    47    43    33   ar
    48    11     7   ar
    49    42    37   ar
    50    17    12   ar
    51    28    20    1
    52    27    23   ar
    53    29    32    1
@<TRIPOS>MOLECULE
*****
 47 53 0 0 0
SMALL
GASTEIGER

@<TRIPOS>ATOM
      1 C          64.9968   90.2426   14.2776 C.ar    1  UNL1        0.1736
      2 C          64.5954   88.8152   14.0508 C.ar    1  UNL1        0.0548
      3 C          63.6593   88.4682   12.9313 C.ar    1  UNL1        0.0569
      4 C          63.1246   89.5485   12.0386 C.ar    1  UNL1        0.0560
      5 C          63.5260   90.9759   12.2654 C.ar    1  UNL1        0.0444
      6 C          64.4621   91.3230   13.3849 C.ar    1  UNL1        0.1726
      7 C          62.1885   89.2015   10.9191 C.ar    1  UNL1        0.2075
      8 N          61.4431   87.9093   10.7615 N.ar    1  UNL1       -0.1074
      9 N          60.6274   87.9949    9.5057 N.ar    1  UNL1       -0.0406
     10 N          60.8685   89.3399    8.8870 N.ar    1  UNL1       -0.1285
     11 N          61.8334   90.0857    9.7606 N.ar    1  UNL1       -0.1253
     12 C          60.2530   89.8498    7.6177 C.ar    1  UNL1        0.1045
     13 C          61.1060   90.5397    6.5948 C.ar    1  UNL1        0.0206
     14 C          60.4905   91.0496    5.3255 C.ar    1  UNL1       -0.0026
     15 C          59.0219   90.8695    5.0792 C.ar    1  UNL1       -0.0207
     16 C          58.1688   90.1796    6.1021 C.ar    1  UNL1       -0.0026
     17 C          58.7844   89.6697    7.3714 C.ar    1  UNL1        0.0206
     18 C          58.4062   91.3794    3.8099 C.3     1  UNL1        0.0437
     19 C          58.7088   92.7698    3.3354 C.3     1  UNL1        0.0772
     20 N          59.7013   92.9863    2.2318 N.3     1  UNL1       -0.2657
     21 C          59.2249   93.1956    0.8250 C.3     1  UNL1        0.0972
     22 C          60.2175   93.4121   -0.2786 C.3     1  UNL1        0.1246
     23 N          61.6865   93.4194    0.0247 N.ar    1  UNL1       -0.3098
     24 C          62.8909   93.6069   -0.8496 C.ar    1  UNL1        0.1784
     25 N          64.1117   93.5135    0.0170 N.ar    1  UNL1       -0.2226
     26 C          63.6617   93.2683    1.4267 C.ar    1  UNL1        0.1147
     27 C          62.1629   93.2101    1.4315 C.ar    1  UNL1        0.0739
     28 C          61.1704   92.9936    2.5350 C.3     1  UNL1        0.1183
     29 N          63.2579   87.0408   12.7045 N.am    1  UNL1       -0.2777
     30 C          63.8814   85.9476   13.5207 C.2     1  UNL1        0.2843
     31 O          64.9063   86.2818   14.5637 O.2     1  UNL1       -0.2665
     32 H          62.5852   86.8215   12.0199 H       1  UNL1        0.1553
     33 C          63.4801   84.5202   13.2939 C.ar    1  UNL1        0.2017
     34 C          62.7882   83.7537   14.3820 C.ar    1  UNL1        0.0843
     35 C          62.3868   82.3263   14.1552 C.ar    1  UNL1        0.2018
     36 O          61.6950   81.5599   15.2432 O.2     1  UNL1       -0.2864
     37 C          62.6772   81.6654   12.8403 C.ar    1  UNL1        0.0735
     38 C          62.2759   80.2381   12.6135 C.ar    1  UNL1        0.0062
     39 C          62.5663   79.5772   11.2986 C.ar    1  UNL1        0.0003
     40 C          63.2581   80.3436   10.2106 C.ar    1  UNL1        0.0031
     41 C          63.6595   81.7710   10.4374 C.ar    1  UNL1        0.0376
     42 C          63.3691   82.4319   11.7523 C.ar    1  UNL1        0.1485
     43 O          63.7705   83.8593   11.9790 O.2     1  UNL1       -0.4487
     44 C          67.2472   91.2481   15.0989 C.3     1  UNL1        0.2526
     45 O          65.9329   90.5896   15.3971 O.3     1  UNL1       -0.4683
     46 O          64.8635   92.7503   13.6117 O.3     1  UNL1       -0.4684
     47 C          65.8394   93.4114   12.6841 C.3     1  UNL1        0.2526
@<TRIPOS>BOND
     1    44    45    1
     2    45     1    1
     3     1     2   ar
     4     2     3   ar
     5     3    29    1
     6    29    30   am
     7    30    31    2
     8    30    33    1
     9    33    34   ar
    10    34    35   ar
    11    35    36    2
    12    35    37   ar
    13    37    38   ar
    14    38    39   ar
    15    39    40   ar
    16    40    41   ar
    17    41    42   ar
    18    42    43   ar
    19     3     4   ar
    20     4     7    1
    21     7     8   ar
    22     8     9   ar
    23     9    10   ar
    24    10    12    1
    25    12    13   ar
    26    13    14   ar
    27    14    15   ar
    28    15    18    1
    29    18    19    1
    30    19    20    1
    31    20    21    1
    32    21    22    1
    33    22    23    1
    34    23    24   ar
    35    24    25   ar
    36    25    26   ar
    37    26    27   ar
    38    27    28    1
    39    15    16   ar
    40    16    17   ar
    41    10    11   ar
    42     4     5   ar
    43     5     6   ar
    44     6    46    1
    45    46    47    1
    46     6     1   ar
    47    43    33   ar
    48    11     7   ar
    49    42    37   ar
    50    17    12   ar
    51    28    20    1
    52    27    23   ar
    53    29    32    1
@<TRIPOS>MOLECULE
*****
 47 53 0 0 0
SMALL
GASTEIGER

@<TRIPOS>ATOM
      1 C          63.6507   83.6548   13.5007 C.ar    1  UNL1        0.1736
      2 C          64.1641   85.0624   13.4299 C.ar    1  UNL1        0.0548
      3 C          63.3486   86.1251   12.7549 C.ar    1  UNL1        0.0569
      4 C          62.0197   85.7803   12.1509 C.ar    1  UNL1        0.0560
      5 C          61.5062   84.3726   12.2217 C.ar    1  UNL1        0.0444
      6 C          62.3217   83.3099   12.8966 C.ar    1  UNL1        0.1726
      7 C          61.2042   86.8430   11.4759 C.ar    1  UNL1        0.2075
      8 N          60.2173   87.7543   12.1436 N.ar    1  UNL1       -0.1074
      9 N          59.6356   88.6556   11.0952 N.ar    1  UNL1       -0.0406
     10 N          60.2629   88.3013    9.7795 N.ar    1  UNL1       -0.1285
     11 N          61.2323   87.1811   10.0147 N.ar    1  UNL1       -0.1253
     12 C          59.9718   88.9529    8.4601 C.ar    1  UNL1        0.1045
     13 C          60.7849   90.1301    8.0094 C.ar    1  UNL1        0.0206
     14 C          60.4939   90.7816    6.6900 C.ar    1  UNL1       -0.0026
     15 C          59.3898   90.2559    5.8213 C.ar    1  UNL1       -0.0207
     16 C          58.5767   89.0787    6.2720 C.ar    1  UNL1       -0.0026
     17 C          58.8677   88.4272    7.5914 C.ar    1  UNL1        0.0206
     18 C          59.0986   90.9074    4.5019 C.3     1  UNL1        0.0437
     19 C          59.5279   92.3231    4.2536 C.3     1  UNL1        0.0772
     20 N          60.3058   92.6651    3.0175 N.3     1  UNL1       -0.2657
     21 C          59.5854   93.0778    1.7683 C.3     1  UNL1        0.0972
     22 C          60.3633   93.4199    0.5322 C.3     1  UNL1        0.1246
     23 N          61.8616   93.3492    0.5454 N.ar    1  UNL1       -0.3098
     24 C          62.8888   93.6257   -0.5121 C.ar    1  UNL1        0.1784
     25 N          64.2440   93.3839    0.0836 N.ar    1  UNL1       -0.2226
     26 C          64.0544   92.9579    1.5092 C.ar    1  UNL1        0.1147
     27 C          62.5820   92.9364    1.7947 C.ar    1  UNL1        0.0739
     28 C          61.8041   92.5944    3.0307 C.3     1  UNL1        0.1183
     29 N          63.8621   87.5327   12.6841 N.am    1  UNL1       -0.2777
     30 C          64.1092   88.3053   13.9459 C.2     1  UNL1        0.2843
     31 O          63.8429   87.6703   15.2785 O.2     1  UNL1       -0.2665
     32 H          64.0368   87.9495   11.8094 H       1  UNL1        0.1553
     33 C          64.6227   89.7129   13.8750 C.ar    1  UNL1        0.2017
     34 C          65.0968   90.4019   15.1203 C.ar    1  UNL1        0.0843
     35 C          65.6102   91.8095   15.0494 C.ar    1  UNL1        0.2018
     36 O          66.0844   92.4984   16.2946 O.2     1  UNL1       -0.2864
     37 C          65.6496   92.5281   13.7333 C.ar    1  UNL1        0.0735
     38 C          66.1630   93.9357   13.6625 C.ar    1  UNL1        0.0062
     39 C          66.2023   94.6543   12.3464 C.ar    1  UNL1        0.0003
     40 C          65.7282   93.9654   11.1012 C.ar    1  UNL1        0.0031
     41 C          65.2148   92.5578   11.1721 C.ar    1  UNL1        0.0376
     42 C          65.1755   91.8392   12.4881 C.ar    1  UNL1        0.1485
     43 O          64.6620   90.4315   12.5590 O.2     1  UNL1       -0.4487
     44 C          64.8956   81.3762   13.4093 C.3     1  UNL1        0.2526
     45 O          64.4662   82.5920   14.1757 O.3     1  UNL1       -0.4683
     46 O          61.8082   81.9023   12.9675 O.3     1  UNL1       -0.4684
     47 C          61.2679   81.3653   14.2596 C.3     1  UNL1        0.2526
@<TRIPOS>BOND
     1    44    45    1
     2    45     1    1
     3     1     2   ar
     4     2     3   ar
     5     3    29    1
     6    29    30   am
     7    30    31    2
     8    30    33    1
     9    33    34   ar
    10    34    35   ar
    11    35    36    2
    12    35    37   ar
    13    37    38   ar
    14    38    39   ar
    15    39    40   ar
    16    40    41   ar
    17    41    42   ar
    18    42    43   ar
    19     3     4   ar
    20     4     7    1
    21     7     8   ar
    22     8     9   ar
    23     9    10   ar
    24    10    12    1
    25    12    13   ar
    26    13    14   ar
    27    14    15   ar
    28    15    18    1
    29    18    19    1
    30    19    20    1
    31    20    21    1
    32    21    22    1
    33    22    23    1
    34    23    24   ar
    35    24    25   ar
    36    25    26   ar
    37    26    27   ar
    38    27    28    1
    39    15    16   ar
    40    16    17   ar
    41    10    11   ar
    42     4     5   ar
    43     5     6   ar
    44     6    46    1
    45    46    47    1
    46     6     1   ar
    47    43    33   ar
    48    11     7   ar
    49    42    37   ar
    50    17    12   ar
    51    28    20    1
    52    27    23   ar
    53    29    32    1
