@<TRIPOS>MOLECULE
*****
 32 36 0 0 0
SMALL
GASTEIGER

@<TRIPOS>ATOM
      1 O          63.5713   87.4031   13.0259 O.2     1  UNL1       -0.2699
      2 C          62.7929   86.7602   11.9165 C.2     1  UNL1        0.2506
      3 N          61.8028   87.5668   11.1297 N.am    1  UNL1       -0.2723
      4 C          61.0244   86.9238   10.0203 C.3     1  UNL1        0.1257
      5 C          60.0343   87.7305    9.2334 C.3     1  UNL1        0.1637
      6 O          59.8225   89.1799    9.5561 O.3     1  UNL1       -0.3502
      7 C          60.6009   89.8229   10.6655 C.3     1  UNL1        0.1622
      8 C          61.5910   89.0163   11.4523 C.3     1  UNL1        0.1096
      9 C          63.0047   85.3106   11.5939 C.ar    1  UNL1        0.0731
     10 C          63.0676   84.8620   10.1639 C.ar    1  UNL1        0.0084
     11 C          63.2794   83.4125    9.8413 C.ar    1  UNL1        0.0299
     12 C          63.4283   82.4117   10.9486 C.ar    1  UNL1        0.1417
     13 F          63.6401   80.9621   10.6260 F       1  UNL1       -0.2041
     14 C          63.3654   82.8604   12.3786 C.ar    1  UNL1        0.0507
     15 C          63.1536   84.3099   12.7012 C.ar    1  UNL1        0.1095
     16 N          63.0908   84.7585   14.1311 N.ar    1  UNL1       -0.1476
     17 N          61.8655   84.7776   14.9962 N.ar    1  UNL1       -0.1447
     18 C          62.2596   85.2978   16.3468 C.ar    1  UNL1        0.1446
     19 C          63.7285   85.6002   16.3165 C.ar    1  UNL1        0.1446
     20 N          64.2421   85.2669   14.9471 N.ar    1  UNL1       -0.1447
     21 C          62.3694   89.6592   12.5617 C.3     1  UNL1        0.0488
     22 C          63.4663   90.6314   12.2427 C.ar    1  UNL1       -0.0189
     23 C          63.5496   91.2466   10.8773 C.ar    1  UNL1       -0.0041
     24 C          64.6465   92.2188   10.5583 C.ar    1  UNL1        0.0013
     25 C          65.6600   92.5758   11.6049 C.ar    1  UNL1        0.0209
     26 C          65.5767   91.9605   12.9704 C.ar    1  UNL1        0.1026
     27 C          64.4798   90.9884   13.2893 C.ar    1  UNL1        0.0167
     28 N          66.5902   92.3175   14.0169 N.ar    1  UNL1       -0.1478
     29 N          68.0803   92.2911   13.8466 N.ar    1  UNL1       -0.1447
     30 C          68.7027   92.7208   15.1419 C.ar    1  UNL1        0.1446
     31 C          67.5973   93.0127   16.1129 C.ar    1  UNL1        0.1446
     32 N          66.2917   92.7635   15.4177 N.ar    1  UNL1       -0.1447
@<TRIPOS>BOND
     1     1     2    2
     2     2     9    1
     3     9    10   ar
     4    10    11   ar
     5    11    12   ar
     6    12    13    1
     7    12    14   ar
     8    14    15   ar
     9    15    16    1
    10    16    17   ar
    11    17    18   ar
    12    18    19   ar
    13    19    20   ar
    14     2     3   am
    15     3     4    1
    16     4     5    1
    17     5     6    1
    18     6     7    1
    19     7     8    1
    20     8    21    1
    21    21    22    1
    22    22    23   ar
    23    23    24   ar
    24    24    25   ar
    25    25    26   ar
    26    26    28    1
    27    28    29   ar
    28    29    30   ar
    29    30    31   ar
    30    31    32   ar
    31    26    27   ar
    32    15     9   ar
    33    20    16   ar
    34     8     3    1
    35    27    22   ar
    36    32    28   ar
@<TRIPOS>MOLECULE
*****
 32 36 0 0 0
SMALL
GASTEIGER

@<TRIPOS>ATOM
      1 O          63.6593   87.4633   13.6964 O.2     1  UNL1       -0.2699
      2 C          63.0599   87.0802   12.3758 C.2     1  UNL1        0.2506
      3 N          62.4184   88.1252   11.5119 N.am    1  UNL1       -0.2723
      4 C          61.8190   87.7421   10.1913 C.3     1  UNL1        0.1257
      5 C          61.1775   88.7872    9.3274 C.3     1  UNL1        0.1637
      6 O          61.1354   90.2154    9.7841 O.3     1  UNL1       -0.3502
      7 C          61.7348   90.5985   11.1046 C.3     1  UNL1        0.1622
      8 C          62.3763   89.5534   11.9685 C.3     1  UNL1        0.1096
      9 C          63.1020   85.6519   11.9191 C.ar    1  UNL1        0.0731
     10 C          63.1253   85.3336   10.4535 C.ar    1  UNL1        0.0084
     11 C          63.1673   83.9054    9.9968 C.ar    1  UNL1        0.0299
     12 C          63.1861   82.7957   11.0057 C.ar    1  UNL1        0.1417
     13 F          63.2282   81.3674   10.5490 F       1  UNL1       -0.2041
     14 C          63.1628   83.1140   12.4714 C.ar    1  UNL1        0.0507
     15 C          63.1207   84.5422   12.9280 C.ar    1  UNL1        0.1095
     16 N          63.0975   84.8605   14.3937 N.ar    1  UNL1       -0.1476
     17 N          61.8832   84.8722   15.2742 N.ar    1  UNL1       -0.1447
     18 C          62.3196   85.2420   16.6609 C.ar    1  UNL1        0.1446
     19 C          63.8036   85.4589   16.6373 C.ar    1  UNL1        0.1446
     20 N          64.2844   85.2232   15.2362 N.ar    1  UNL1       -0.1447
     21 C          62.9757   89.9365   13.2891 C.3     1  UNL1        0.0488
     22 C          64.2709   90.6917   13.3341 C.ar    1  UNL1       -0.0189
     23 C          65.1903   90.5346   14.5088 C.ar    1  UNL1       -0.0041
     24 C          66.4856   91.2898   14.5538 C.ar    1  UNL1        0.0013
     25 C          66.8615   92.2020   13.4240 C.ar    1  UNL1        0.0209
     26 C          65.9421   92.3591   12.2492 C.ar    1  UNL1        0.1026
     27 C          64.6469   91.6039   12.2042 C.ar    1  UNL1        0.0167
     28 N          66.3180   93.2713   11.1193 N.ar    1  UNL1       -0.1478
     29 N          65.5969   94.5248   10.7209 N.ar    1  UNL1       -0.1447
     30 C          66.3142   95.1184    9.5449 C.ar    1  UNL1        0.1446
     31 C          67.4787   94.2318    9.2164 C.ar    1  UNL1        0.1446
     32 N          67.4811   93.0902   10.1895 N.ar    1  UNL1       -0.1447
@<TRIPOS>BOND
     1     1     2    2
     2     2     9    1
     3     9    10   ar
     4    10    11   ar
     5    11    12   ar
     6    12    13    1
     7    12    14   ar
     8    14    15   ar
     9    15    16    1
    10    16    17   ar
    11    17    18   ar
    12    18    19   ar
    13    19    20   ar
    14     2     3   am
    15     3     4    1
    16     4     5    1
    17     5     6    1
    18     6     7    1
    19     7     8    1
    20     8    21    1
    21    21    22    1
    22    22    23   ar
    23    23    24   ar
    24    24    25   ar
    25    25    26   ar
    26    26    28    1
    27    28    29   ar
    28    29    30   ar
    29    30    31   ar
    30    31    32   ar
    31    26    27   ar
    32    15     9   ar
    33    20    16   ar
    34     8     3    1
    35    27    22   ar
    36    32    28   ar
@<TRIPOS>MOLECULE
*****
 32 36 0 0 0
SMALL
GASTEIGER

@<TRIPOS>ATOM
      1 O          62.6802   90.0400   11.5038 O.2     1  UNL1       -0.2699
      2 C          62.6960   88.5407   11.5443 C.2     1  UNL1        0.2506
      3 N          63.3342   87.8284   12.6999 N.am    1  UNL1       -0.2723
      4 C          63.3501   86.3290   12.7404 C.3     1  UNL1        0.1257
      5 C          63.9883   85.6167   13.8961 C.3     1  UNL1        0.1637
      6 O          64.6106   86.4038   15.0110 O.3     1  UNL1       -0.3502
      7 C          64.5947   87.9032   14.9705 C.3     1  UNL1        0.1622
      8 C          63.9566   88.6155   13.8149 C.3     1  UNL1        0.1096
      9 C          62.0737   87.7536   10.4293 C.ar    1  UNL1        0.0731
     10 C          62.8994   86.7708    9.6532 C.ar    1  UNL1        0.0084
     11 C          62.2772   85.9837    8.5382 C.ar    1  UNL1        0.0299
     12 C          60.8292   86.1795    8.1993 C.ar    1  UNL1        0.1417
     13 F          60.2068   85.3924    7.0842 F       1  UNL1       -0.2041
     14 C          60.0034   87.1623    8.9753 C.ar    1  UNL1        0.0507
     15 C          60.6257   87.9494   10.0903 C.ar    1  UNL1        0.1095
     16 N          59.8000   88.9322   10.8664 N.ar    1  UNL1       -0.1476
     17 N          59.5893   90.3759   10.5181 N.ar    1  UNL1       -0.1447
     18 C          58.6991   90.9799   11.5634 C.ar    1  UNL1        0.1446
     19 C          58.3595   89.9094   12.5578 C.ar    1  UNL1        0.1446
     20 N          59.0399   88.6439   12.1270 N.ar    1  UNL1       -0.1447
     21 C          63.9407   90.1148   13.7744 C.3     1  UNL1        0.0488
     22 C          65.2312   90.8773   13.7179 C.ar    1  UNL1       -0.0189
     23 C          66.1699   90.8505   14.8875 C.ar    1  UNL1       -0.0041
     24 C          67.4604   91.6130   14.8311 C.ar    1  UNL1        0.0013
     25 C          67.8122   92.4022   13.6050 C.ar    1  UNL1        0.0209
     26 C          66.8735   92.4290   12.4353 C.ar    1  UNL1        0.1026
     27 C          65.5830   91.6665   12.4918 C.ar    1  UNL1        0.0167
     28 N          67.2253   93.2183   11.2092 N.ar    1  UNL1       -0.1478
     29 N          66.8415   94.6426   10.9373 N.ar    1  UNL1       -0.1447
     30 C          67.4016   95.0264    9.5998 C.ar    1  UNL1        0.1446
     31 C          68.1317   93.8392    9.0451 C.ar    1  UNL1        0.1446
     32 N          68.0227   92.7217   10.0397 N.ar    1  UNL1       -0.1447
@<TRIPOS>BOND
     1     1     2    2
     2     2     9    1
     3     9    10   ar
     4    10    11   ar
     5    11    12   ar
     6    12    13    1
     7    12    14   ar
     8    14    15   ar
     9    15    16    1
    10    16    17   ar
    11    17    18   ar
    12    18    19   ar
    13    19    20   ar
    14     2     3   am
    15     3     4    1
    16     4     5    1
    17     5     6    1
    18     6     7    1
    19     7     8    1
    20     8    21    1
    21    21    22    1
    22    22    23   ar
    23    23    24   ar
    24    24    25   ar
    25    25    26   ar
    26    26    28    1
    27    28    29   ar
    28    29    30   ar
    29    30    31   ar
    30    31    32   ar
    31    26    27   ar
    32    15     9   ar
    33    20    16   ar
    34     8     3    1
    35    27    22   ar
    36    32    28   ar
@<TRIPOS>MOLECULE
*****
 32 36 0 0 0
SMALL
GASTEIGER

@<TRIPOS>ATOM
      1 O          63.7165   88.5281   12.2923 O.2     1  UNL1       -0.2699
      2 C          63.5642   87.5068   13.3803 C.2     1  UNL1        0.2506
      3 N          63.4308   87.9464   14.8082 N.am    1  UNL1       -0.2723
      4 C          63.2785   86.9251   15.8963 C.3     1  UNL1        0.1257
      5 C          63.1451   87.3647   17.3242 C.3     1  UNL1        0.1637
      6 O          63.1640   88.8256   17.6641 O.3     1  UNL1       -0.3502
      7 C          63.3163   89.8468   16.5761 C.3     1  UNL1        0.1622
      8 C          63.4497   89.4073   15.1482 C.3     1  UNL1        0.1096
      9 C          63.5454   86.0459   13.0404 C.ar    1  UNL1        0.0731
     10 C          64.3767   85.0808   13.8325 C.ar    1  UNL1        0.0084
     11 C          64.3579   83.6200   13.4926 C.ar    1  UNL1        0.0299
     12 C          63.5077   83.1243   12.3606 C.ar    1  UNL1        0.1417
     13 F          63.4888   81.6634   12.0207 F       1  UNL1       -0.2041
     14 C          62.6764   84.0894   11.5685 C.ar    1  UNL1        0.0507
     15 C          62.6952   85.5502   11.9084 C.ar    1  UNL1        0.1095
     16 N          61.8638   86.5154   11.1164 N.ar    1  UNL1       -0.1476
     17 N          60.6432   87.2364   11.6064 N.ar    1  UNL1       -0.1447
     18 C          60.1321   88.0956   10.4881 C.ar    1  UNL1        0.1446
     19 C          61.0369   87.9055    9.3069 C.ar    1  UNL1        0.1446
     20 N          62.1071   86.9289    9.6952 N.ar    1  UNL1       -0.1447
     21 C          63.6020   90.4286   14.0602 C.3     1  UNL1        0.0488
     22 C          64.9156   91.1257   13.8644 C.ar    1  UNL1       -0.0189
     23 C          66.0198   90.9389   14.8623 C.ar    1  UNL1       -0.0041
     24 C          67.3335   91.6360   14.6665 C.ar    1  UNL1        0.0013
     25 C          67.5430   92.5199   13.4729 C.ar    1  UNL1        0.0209
     26 C          66.4387   92.7067   12.4750 C.ar    1  UNL1        0.1026
     27 C          65.1251   92.0096   12.6707 C.ar    1  UNL1        0.0167
     28 N          66.6482   93.5906   11.2813 N.ar    1  UNL1       -0.1478
     29 N          65.8363   94.8012   10.9273 N.ar    1  UNL1       -0.1447
     30 C          66.3926   95.3779    9.6593 C.ar    1  UNL1        0.1446
     31 C          67.5483   94.5238    9.2296 C.ar    1  UNL1        0.1446
     32 N          67.7064   93.4191   10.2320 N.ar    1  UNL1       -0.1447
@<TRIPOS>BOND
     1     1     2    2
     2     2     9    1
     3     9    10   ar
     4    10    11   ar
     5    11    12   ar
     6    12    13    1
     7    12    14   ar
     8    14    15   ar
     9    15    16    1
    10    16    17   ar
    11    17    18   ar
    12    18    19   ar
    13    19    20   ar
    14     2     3   am
    15     3     4    1
    16     4     5    1
    17     5     6    1
    18     6     7    1
    19     7     8    1
    20     8    21    1
    21    21    22    1
    22    22    23   ar
    23    23    24   ar
    24    24    25   ar
    25    25    26   ar
    26    26    28    1
    27    28    29   ar
    28    29    30   ar
    29    30    31   ar
    30    31    32   ar
    31    26    27   ar
    32    15     9   ar
    33    20    16   ar
    34     8     3    1
    35    27    22   ar
    36    32    28   ar
@<TRIPOS>MOLECULE
*****
 32 36 0 0 0
SMALL
GASTEIGER

@<TRIPOS>ATOM
      1 O          65.1280   85.5877   13.3368 O.2     1  UNL1       -0.2699
      2 C          64.0562   84.8363   14.0694 C.2     1  UNL1        0.2506
      3 N          63.3903   85.4532   15.2635 N.am    1  UNL1       -0.2723
      4 C          62.3185   84.7018   15.9961 C.3     1  UNL1        0.1257
      5 C          61.6526   85.3188   17.1903 C.3     1  UNL1        0.1637
      6 O          62.0585   86.6870   17.6518 O.3     1  UNL1       -0.3502
      7 C          63.1303   87.4384   16.9192 C.3     1  UNL1        0.1622
      8 C          63.7962   86.8215   15.7251 C.3     1  UNL1        0.1096
      9 C          63.6503   83.4679   13.6078 C.ar    1  UNL1        0.0731
     10 C          64.0280   82.2614   14.4152 C.ar    1  UNL1        0.0084
     11 C          63.6221   80.8932   13.9536 C.ar    1  UNL1        0.0299
     12 C          62.8387   80.7314   12.6848 C.ar    1  UNL1        0.1417
     13 F          62.4328   79.3630   12.2232 F       1  UNL1       -0.2041
     14 C          62.4611   81.9379   11.8775 C.ar    1  UNL1        0.0507
     15 C          62.8669   83.3061   12.3390 C.ar    1  UNL1        0.1095
     16 N          62.4892   84.5126   11.5317 N.ar    1  UNL1       -0.1476
     17 N          61.6402   85.6568   12.0006 N.ar    1  UNL1       -0.1447
     18 C          61.5206   86.6381   10.8724 C.ar    1  UNL1        0.1446
     19 C          62.2957   86.1004    9.7062 C.ar    1  UNL1        0.1446
     20 N          62.8944   84.7868   10.1137 N.ar    1  UNL1       -0.1447
     21 C          64.8679   87.5729   14.9925 C.3     1  UNL1        0.0488
     22 C          64.5273   88.8291   14.2470 C.ar    1  UNL1       -0.0189
     23 C          65.2539   90.1046   14.5555 C.ar    1  UNL1       -0.0041
     24 C          64.9133   91.3610   13.8100 C.ar    1  UNL1        0.0013
     25 C          63.8461   91.3417   12.7560 C.ar    1  UNL1        0.0209
     26 C          63.1196   90.0661   12.4476 C.ar    1  UNL1        0.1026
     27 C          63.4602   88.8099   13.1931 C.ar    1  UNL1        0.0167
     28 N          62.0524   90.0469   11.3936 N.ar    1  UNL1       -0.1478
     29 N          62.2767   89.9551    9.9133 N.ar    1  UNL1       -0.1447
     30 C          60.9366   89.9675    9.2397 C.ar    1  UNL1        0.1446
     31 C          59.8839   90.0670   10.3037 C.ar    1  UNL1        0.1446
     32 N          60.5735   90.1160   11.6349 N.ar    1  UNL1       -0.1447
@<TRIPOS>BOND
     1     1     2    2
     2     2     9    1
     3     9    10   ar
     4    10    11   ar
     5    11    12   ar
     6    12    13    1
     7    12    14   ar
     8    14    15   ar
     9    15    16    1
    10    16    17   ar
    11    17    18   ar
    12    18    19   ar
    13    19    20   ar
    14     2     3   am
    15     3     4    1
    16     4     5    1
    17     5     6    1
    18     6     7    1
    19     7     8    1
    20     8    21    1
    21    21    22    1
    22    22    23   ar
    23    23    24   ar
    24    24    25   ar
    25    25    26   ar
    26    26    28    1
    27    28    29   ar
    28    29    30   ar
    29    30    31   ar
    30    31    32   ar
    31    26    27   ar
    32    15     9   ar
    33    20    16   ar
    34     8     3    1
    35    27    22   ar
    36    32    28   ar
@<TRIPOS>MOLECULE
*****
 32 36 0 0 0
SMALL
GASTEIGER

@<TRIPOS>ATOM
      1 O          62.9455   87.8691   12.5632 O.2     1  UNL1       -0.2699
      2 C          62.7353   89.0279   11.6342 C.2     1  UNL1        0.2506
      3 N          61.6968   88.9453   10.5551 N.am    1  UNL1       -0.2723
      4 C          61.4866   90.1041    9.6261 C.3     1  UNL1        0.1257
      5 C          60.4480   90.0214    8.5469 C.3     1  UNL1        0.1637
      6 O          59.6197   88.7799    8.3968 O.3     1  UNL1       -0.3502
      7 C          59.8299   87.6211    9.3257 C.3     1  UNL1        0.1622
      8 C          60.8684   87.7038   10.4049 C.3     1  UNL1        0.1096
      9 C          63.5637   90.2695   11.7844 C.ar    1  UNL1        0.0731
     10 C          63.8636   91.1205   10.5862 C.ar    1  UNL1        0.0084
     11 C          64.6919   92.3620   10.7363 C.ar    1  UNL1        0.0299
     12 C          65.2204   92.7524   12.0847 C.ar    1  UNL1        0.1417
     13 F          66.0488   93.9939   12.2349 F       1  UNL1       -0.2041
     14 C          64.9205   91.9013   13.2830 C.ar    1  UNL1        0.0507
     15 C          64.0922   90.6599   13.1328 C.ar    1  UNL1        0.1095
     16 N          63.7923   89.8088   14.3311 N.ar    1  UNL1       -0.1476
     17 N          64.4942   88.5378   14.7077 N.ar    1  UNL1       -0.1447
     18 C          63.8736   88.0228   15.9725 C.ar    1  UNL1        0.1446
     19 C          62.7882   88.9756   16.3776 C.ar    1  UNL1        0.1446
     20 N          62.7380   90.0794   15.3631 N.ar    1  UNL1       -0.1447
     21 C          61.0786   86.5450   11.3338 C.3     1  UNL1        0.0488
     22 C          61.9677   85.4080   10.9254 C.ar    1  UNL1       -0.0189
     23 C          62.7045   85.4636    9.6201 C.ar    1  UNL1       -0.0041
     24 C          63.5936   84.3267    9.2116 C.ar    1  UNL1        0.0013
     25 C          63.7459   83.1341   10.1086 C.ar    1  UNL1        0.0209
     26 C          63.0091   83.0785   11.4140 C.ar    1  UNL1        0.1026
     27 C          62.1200   84.2154   11.8224 C.ar    1  UNL1        0.0167
     28 N          63.1614   81.8859   12.3110 N.ar    1  UNL1       -0.1478
     29 N          62.5255   80.5427   12.1075 N.ar    1  UNL1       -0.1447
     30 C          62.9474   79.6538   13.2397 C.ar    1  UNL1        0.1446
     31 C          63.8441   80.4476   14.1429 C.ar    1  UNL1        0.1446
     32 N          63.9764   81.8272   13.5690 N.ar    1  UNL1       -0.1447
@<TRIPOS>BOND
     1     1     2    2
     2     2     9    1
     3     9    10   ar
     4    10    11   ar
     5    11    12   ar
     6    12    13    1
     7    12    14   ar
     8    14    15   ar
     9    15    16    1
    10    16    17   ar
    11    17    18   ar
    12    18    19   ar
    13    19    20   ar
    14     2     3   am
    15     3     4    1
    16     4     5    1
    17     5     6    1
    18     6     7    1
    19     7     8    1
    20     8    21    1
    21    21    22    1
    22    22    23   ar
    23    23    24   ar
    24    24    25   ar
    25    25    26   ar
    26    26    28    1
    27    28    29   ar
    28    29    30   ar
    29    30    31   ar
    30    31    32   ar
    31    26    27   ar
    32    15     9   ar
    33    20    16   ar
    34     8     3    1
    35    27    22   ar
    36    32    28   ar
@<TRIPOS>MOLECULE
*****
 32 36 0 0 0
SMALL
GASTEIGER

@<TRIPOS>ATOM
      1 O          60.6927   86.8031   11.6942 O.2     1  UNL1       -0.2699
      2 C          61.0658   86.6336   10.2513 C.2     1  UNL1        0.2506
      3 N          62.0805   85.6024    9.8551 N.am    1  UNL1       -0.2723
      4 C          62.4536   85.4329    8.4122 C.3     1  UNL1        0.1257
      5 C          63.4684   84.4016    8.0161 C.3     1  UNL1        0.1637
      6 O          64.1099   83.5399    9.0628 O.3     1  UNL1       -0.3502
      7 C          63.7368   83.7094   10.5058 C.3     1  UNL1        0.1622
      8 C          62.7222   84.7406   10.9019 C.3     1  UNL1        0.1096
      9 C          60.4242   87.4954    9.2045 C.ar    1  UNL1        0.0731
     10 C          59.5553   86.8745    8.1512 C.ar    1  UNL1        0.0084
     11 C          58.9137   87.7362    7.1044 C.ar    1  UNL1        0.0299
     12 C          59.1410   89.2188    7.1109 C.ar    1  UNL1        0.1417
     13 F          58.4994   90.0806    6.0641 F       1  UNL1       -0.2041
     14 C          60.0099   89.8397    8.1642 C.ar    1  UNL1        0.0507
     15 C          60.6515   88.9780    9.2110 C.ar    1  UNL1        0.1095
     16 N          61.5205   89.5990   10.2643 N.ar    1  UNL1       -0.1476
     17 N          61.1451   89.8193   11.6997 N.ar    1  UNL1       -0.1447
     18 C          62.3100   90.4651   12.3896 C.ar    1  UNL1        0.1446
     19 C          63.4053   90.6439   11.3806 C.ar    1  UNL1        0.1446
     20 N          62.9174   90.1086   10.0670 N.ar    1  UNL1       -0.1447
     21 C          62.3490   84.9101   12.3449 C.3     1  UNL1        0.0488
     22 C          63.3534   85.4466   13.3212 C.ar    1  UNL1       -0.0189
     23 C          64.3662   84.5272   13.9367 C.ar    1  UNL1       -0.0041
     24 C          65.3707   85.0636   14.9131 C.ar    1  UNL1        0.0013
     25 C          65.3623   86.5195   15.2740 C.ar    1  UNL1        0.0209
     26 C          64.3495   87.4390   14.6584 C.ar    1  UNL1        0.1026
     27 C          63.3451   86.9025   13.6821 C.ar    1  UNL1        0.0167
     28 N          64.3411   88.8949   15.0193 N.ar    1  UNL1       -0.1478
     29 N          65.1944   89.9618   14.3998 N.ar    1  UNL1       -0.1447
     30 C          64.8586   91.2658   15.0606 C.ar    1  UNL1        0.1446
     31 C          63.7979   91.0050   16.0886 C.ar    1  UNL1        0.1446
     32 N          63.4780   89.5396   16.0631 N.ar    1  UNL1       -0.1447
@<TRIPOS>BOND
     1     1     2    2
     2     2     9    1
     3     9    10   ar
     4    10    11   ar
     5    11    12   ar
     6    12    13    1
     7    12    14   ar
     8    14    15   ar
     9    15    16    1
    10    16    17   ar
    11    17    18   ar
    12    18    19   ar
    13    19    20   ar
    14     2     3   am
    15     3     4    1
    16     4     5    1
    17     5     6    1
    18     6     7    1
    19     7     8    1
    20     8    21    1
    21    21    22    1
    22    22    23   ar
    23    23    24   ar
    24    24    25   ar
    25    25    26   ar
    26    26    28    1
    27    28    29   ar
    28    29    30   ar
    29    30    31   ar
    30    31    32   ar
    31    26    27   ar
    32    15     9   ar
    33    20    16   ar
    34     8     3    1
    35    27    22   ar
    36    32    28   ar
@<TRIPOS>MOLECULE
*****
 32 36 0 0 0
SMALL
GASTEIGER

@<TRIPOS>ATOM
      1 O          63.0861   89.5929   10.9270 O.2     1  UNL1       -0.2699
      2 C          62.7538   88.1420   11.1122 C.2     1  UNL1        0.2506
      3 N          63.1913   87.4251   12.3550 N.am    1  UNL1       -0.2723
      4 C          62.8590   85.9742   12.5403 C.3     1  UNL1        0.1257
      5 C          63.2966   85.2573   13.7832 C.3     1  UNL1        0.1637
      6 O          64.0664   85.9914   14.8407 O.3     1  UNL1       -0.3502
      7 C          64.3986   87.4423   14.6555 C.3     1  UNL1        0.1622
      8 C          63.9611   88.1592   13.4127 C.3     1  UNL1        0.1096
      9 C          61.9840   87.4079   10.0545 C.ar    1  UNL1        0.0731
     10 C          62.6753   86.3951    9.1907 C.ar    1  UNL1        0.0084
     11 C          61.9056   85.6610    8.1330 C.ar    1  UNL1        0.0299
     12 C          60.4445   85.9397    7.9393 C.ar    1  UNL1        0.1417
     13 F          59.6747   85.2056    6.8816 F       1  UNL1       -0.2041
     14 C          59.7532   86.9525    8.8032 C.ar    1  UNL1        0.0507
     15 C          60.5229   87.6866    9.8608 C.ar    1  UNL1        0.1095
     16 N          59.8316   88.6994   10.7247 N.ar    1  UNL1       -0.1476
     17 N          59.6571   90.1554   10.4090 N.ar    1  UNL1       -0.1447
     18 C          58.9110   90.7899   11.5451 C.ar    1  UNL1        0.1446
     19 C          58.6245   89.7261   12.5630 C.ar    1  UNL1        0.1446
     20 N          59.1934   88.4341   12.0560 N.ar    1  UNL1       -0.1447
     21 C          64.2934   89.6102   13.2275 C.3     1  UNL1        0.0488
     22 C          64.5639   90.4761   14.4220 C.ar    1  UNL1       -0.0189
     23 C          63.5140   90.6434   15.4802 C.ar    1  UNL1       -0.0041
     24 C          63.7845   91.5093   16.6748 C.ar    1  UNL1        0.0013
     25 C          65.1048   92.2079   16.8112 C.ar    1  UNL1        0.0209
     26 C          66.1547   92.0406   15.7529 C.ar    1  UNL1        0.1026
     27 C          65.8842   91.1747   14.5584 C.ar    1  UNL1        0.0167
     28 N          67.4751   92.7392   15.8893 N.ar    1  UNL1       -0.1478
     29 N          68.7712   92.1033   16.2963 N.ar    1  UNL1       -0.1447
     30 C          69.8283   93.1675   16.3012 C.ar    1  UNL1        0.1446
     31 C          69.1855   94.4612   15.8972 C.ar    1  UNL1        0.1446
     32 N          67.7311   94.1966   15.6426 N.ar    1  UNL1       -0.1447
@<TRIPOS>BOND
     1     1     2    2
     2     2     9    1
     3     9    10   ar
     4    10    11   ar
     5    11    12   ar
     6    12    13    1
     7    12    14   ar
     8    14    15   ar
     9    15    16    1
    10    16    17   ar
    11    17    18   ar
    12    18    19   ar
    13    19    20   ar
    14     2     3   am
    15     3     4    1
    16     4     5    1
    17     5     6    1
    18     6     7    1
    19     7     8    1
    20     8    21    1
    21    21    22    1
    22    22    23   ar
    23    23    24   ar
    24    24    25   ar
    25    25    26   ar
    26    26    28    1
    27    28    29   ar
    28    29    30   ar
    29    30    31   ar
    30    31    32   ar
    31    26    27   ar
    32    15     9   ar
    33    20    16   ar
    34     8     3    1
    35    27    22   ar
    36    32    28   ar
@<TRIPOS>MOLECULE
*****
 32 36 0 0 0
SMALL
GASTEIGER

@<TRIPOS>ATOM
      1 O          61.8469   85.8620   13.1780 O.2     1  UNL1       -0.2699
      2 C          62.3515   84.8057   12.2400 C.2     1  UNL1        0.2506
      3 N          62.5937   85.1374   10.7974 N.am    1  UNL1       -0.2723
      4 C          63.0983   84.0811    9.8594 C.3     1  UNL1        0.1257
      5 C          63.3405   84.4128    8.4167 C.3     1  UNL1        0.1637
      6 O          63.0781   85.8008    7.9120 O.3     1  UNL1       -0.3502
      7 C          62.5735   86.8570    8.8499 C.3     1  UNL1        0.1622
      8 C          62.3313   86.5254   10.2926 C.3     1  UNL1        0.1096
      9 C          62.6139   83.4177   12.7448 C.ar    1  UNL1        0.0731
     10 C          62.4951   82.2466   11.8151 C.ar    1  UNL1        0.0084
     11 C          62.7575   80.8587   12.3198 C.ar    1  UNL1        0.0299
     12 C          63.1386   80.6419   13.7543 C.ar    1  UNL1        0.1417
     13 F          63.4010   79.2539   14.2590 F       1  UNL1       -0.2041
     14 C          63.2574   81.8130   14.6840 C.ar    1  UNL1        0.0507
     15 C          62.9950   83.2009   14.1793 C.ar    1  UNL1        0.1095
     16 N          63.1138   84.3720   15.1090 N.ar    1  UNL1       -0.1476
     17 N          64.2333   85.3702   15.1312 N.ar    1  UNL1       -0.1447
     18 C          63.9453   86.3657   16.2157 C.ar    1  UNL1        0.1446
     19 C          62.6479   85.9827   16.8638 C.ar    1  UNL1        0.1446
     20 N          62.1340   84.7506   16.1798 N.ar    1  UNL1       -0.1447
     21 C          61.8268   87.5816   11.2305 C.3     1  UNL1        0.0488
     22 C          62.4817   88.9307   11.2630 C.ar    1  UNL1       -0.0189
     23 C          62.4694   89.7999   10.0407 C.ar    1  UNL1       -0.0041
     24 C          63.1243   91.1491   10.0732 C.ar    1  UNL1        0.0013
     25 C          63.7915   91.6289   11.3280 C.ar    1  UNL1        0.0209
     26 C          63.8038   90.7595   12.5504 C.ar    1  UNL1        0.1026
     27 C          63.1488   89.4104   12.5179 C.ar    1  UNL1        0.0167
     28 N          64.4709   91.2393   13.8053 N.ar    1  UNL1       -0.1478
     29 N          65.9122   91.6313   13.9430 N.ar    1  UNL1       -0.1447
     30 C          66.1461   92.0456   15.3656 C.ar    1  UNL1        0.1446
     31 C          64.8493   91.9096   16.1071 C.ar    1  UNL1        0.1446
     32 N          63.8139   91.4113   15.1428 N.ar    1  UNL1       -0.1447
@<TRIPOS>BOND
     1     1     2    2
     2     2     9    1
     3     9    10   ar
     4    10    11   ar
     5    11    12   ar
     6    12    13    1
     7    12    14   ar
     8    14    15   ar
     9    15    16    1
    10    16    17   ar
    11    17    18   ar
    12    18    19   ar
    13    19    20   ar
    14     2     3   am
    15     3     4    1
    16     4     5    1
    17     5     6    1
    18     6     7    1
    19     7     8    1
    20     8    21    1
    21    21    22    1
    22    22    23   ar
    23    23    24   ar
    24    24    25   ar
    25    25    26   ar
    26    26    28    1
    27    28    29   ar
    28    29    30   ar
    29    30    31   ar
    30    31    32   ar
    31    26    27   ar
    32    15     9   ar
    33    20    16   ar
    34     8     3    1
    35    27    22   ar
    36    32    28   ar
