@<TRIPOS>MOLECULE
*****
 42 47 0 0 0
SMALL
GASTEIGER

@<TRIPOS>ATOM
      1 N          60.9697   90.8018    5.4897 N.am    1  UNL1       -0.2804
      2 C          59.7857   90.1724    6.1620 C.2     1  UNL1        0.2495
      3 O          58.4040   90.4179    5.6321 O.2     1  UNL1       -0.2698
      4 H          61.8765   90.6407    5.8375 H       1  UNL1        0.1552
      5 C          59.9833   89.2975    7.3642 C.ar    1  UNL1        0.0543
      6 C          59.3589   87.9343    7.4108 C.ar    1  UNL1        0.0042
      7 C          59.5566   87.0595    8.6130 C.ar    1  UNL1       -0.0035
      8 C          60.3787   87.5476    9.7688 C.ar    1  UNL1       -0.0142
      9 C          60.5763   86.6726   10.9711 C.3     1  UNL1        0.0317
     10 C          61.0031   88.9106    9.7223 C.ar    1  UNL1        0.0382
     11 C          60.8054   89.7855    8.5201 C.ar    1  UNL1        0.0124
     12 C          61.8252   89.3987   10.8782 C.1     1  UNL1       -0.0585
     13 C          62.6472   89.8869   12.0340 C.1     1  UNL1       -0.0388
     14 C          63.4693   90.3750   13.1898 C.ar    1  UNL1        0.1451
     15 C          63.3886   89.8760   14.6021 C.ar    1  UNL1        0.1281
     16 N          64.3859   90.6404   15.4214 N.ar    1  UNL1       -0.2228
     17 C          65.0829   91.6118   14.5155 C.ar    1  UNL1        0.1646
     18 C          66.1602   92.6244   14.7682 C.ar    1  UNL1        0.0405
     19 C          66.6710   93.4730   13.6418 C.ar    1  UNL1        0.0256
     20 C          66.1045   93.3089   12.2626 C.ar    1  UNL1        0.1207
     21 N          65.0272   92.2963   12.0098 N.ar    1  UNL1       -0.1616
     22 N          64.5164   91.4477   13.1363 N.ar    1  UNL1       -0.2030
     23 C          60.3767   93.4267    1.8829 C.ar    1  UNL1       -0.0100
     24 C          59.2197   93.1233    2.7881 C.ar    1  UNL1       -0.0020
     25 C          59.4174   92.2483    3.9904 C.ar    1  UNL1        0.0144
     26 C          60.7721   91.6767    4.2875 C.ar    1  UNL1        0.0502
     27 C          61.9290   91.9802    3.3823 C.ar    1  UNL1        0.0101
     28 C          61.7314   92.8551    2.1801 C.ar    1  UNL1       -0.0239
     29 C          62.8884   93.1585    1.2749 C.3     1  UNL1        0.0221
     30 C          63.4132   93.5854   -0.0639 C.3     1  UNL1        0.0047
     31 C          64.3675   93.2571    1.0459 C.3     1  UNL1        0.0047
     32 C          60.1791   94.3016    0.6807 C.3     1  UNL1        0.0989
     33 N          57.9009   92.7542   -2.8780 N.3     1  UNL1       -0.2682
     34 C          59.3348   93.1681   -3.0276 C.3     1  UNL1        0.0897
     35 C          60.0943   93.6839   -1.8414 C.3     1  UNL1        0.0899
     36 N          59.4197   93.7858   -0.5056 N.3     1  UNL1       -0.2665
     37 C          57.9857   93.3719   -0.3559 C.3     1  UNL1        0.0899
     38 C          57.2263   92.8561   -1.5422 C.3     1  UNL1        0.0897
     39 C          57.1414   92.2383   -4.0644 C.3     1  UNL1        0.1046
     40 C          56.0394   91.2390   -3.8727 C.3     1  UNL1        0.1595
     41 C          55.4178   91.3155   -6.3940 C.3     1  UNL1        0.1742
     42 O          55.3714   90.6212   -5.0652 O.3     1  UNL1       -0.3496
@<TRIPOS>BOND
     1    41    42    1
     2    42    40    1
     3    40    39    1
     4    39    33    1
     5    33    34    1
     6    34    35    1
     7    35    36    1
     8    36    32    1
     9    32    23    1
    10    23    24   ar
    11    24    25   ar
    12    25    26   ar
    13    26     1    1
    14     1     2   am
    15     2     3    2
    16     2     5    1
    17     5     6   ar
    18     6     7   ar
    19     7     8   ar
    20     8     9    1
    21     8    10   ar
    22    10    12    1
    23    12    13    3
    24    13    14    1
    25    14    15   ar
    26    15    16   ar
    27    16    17   ar
    28    17    18   ar
    29    18    19   ar
    30    19    20   ar
    31    20    21   ar
    32    21    22   ar
    33    10    11   ar
    34    26    27   ar
    35    27    28   ar
    36    28    29    1
    37    29    30    1
    38    30    31    1
    39    36    37    1
    40    37    38    1
    41    38    33    1
    42    28    23   ar
    43    31    29    1
    44    11     5   ar
    45    22    14   ar
    46    22    17   ar
    47     1     4    1
@<TRIPOS>MOLECULE
*****
 42 47 0 0 0
SMALL
GASTEIGER

@<TRIPOS>ATOM
      1 N          61.4165   89.6804    8.8957 N.am    1  UNL1       -0.2804
      2 C          60.3260   89.0894    8.0524 C.2     1  UNL1        0.2495
      3 O          59.7809   87.7299    8.3760 O.2     1  UNL1       -0.2698
      4 H          61.7742   90.5727    8.6833 H       1  UNL1        0.1552
      5 C          59.7804   89.8578    6.8854 C.ar    1  UNL1        0.0543
      6 C          58.2985   90.0248    6.7240 C.ar    1  UNL1        0.0042
      7 C          57.7530   90.7932    5.5570 C.ar    1  UNL1       -0.0035
      8 C          58.6894   91.3947    4.5513 C.ar    1  UNL1       -0.0142
      9 C          58.1439   92.1631    3.3843 C.3     1  UNL1        0.0317
     10 C          60.1713   91.2277    4.7127 C.ar    1  UNL1        0.0382
     11 C          60.7168   90.4592    5.8797 C.ar    1  UNL1        0.0124
     12 C          61.1076   91.8291    3.7070 C.1     1  UNL1       -0.0585
     13 C          62.0440   92.4306    2.7012 C.1     1  UNL1       -0.0388
     14 C          62.9804   93.0321    1.6954 C.ar    1  UNL1        0.1451
     15 C          64.3814   93.4964    1.9626 C.ar    1  UNL1        0.1281
     16 N          64.9470   94.0261    0.6783 N.ar    1  UNL1       -0.2228
     17 C          63.8955   93.8891   -0.3827 C.ar    1  UNL1        0.1646
     18 C          63.8878   94.2444   -1.8399 C.ar    1  UNL1        0.0405
     19 C          62.6646   93.9854   -2.6685 C.ar    1  UNL1        0.0256
     20 C          61.4491   93.3710   -2.0399 C.ar    1  UNL1        0.1207
     21 N          61.4568   93.0157   -0.5826 N.ar    1  UNL1       -0.1616
     22 N          62.6800   93.2748    0.2460 N.ar    1  UNL1       -0.2030
     23 C          63.0531   87.3751   12.3968 C.ar    1  UNL1       -0.0100
     24 C          62.3788   86.6496   11.2704 C.ar    1  UNL1       -0.0020
     25 C          61.8332   87.4181   10.1033 C.ar    1  UNL1        0.0144
     26 C          61.9621   88.9120   10.0627 C.ar    1  UNL1        0.0502
     27 C          62.6364   89.6374   11.1892 C.ar    1  UNL1        0.0101
     28 C          63.1820   88.8690   12.3562 C.ar    1  UNL1       -0.0239
     29 C          63.8564   89.5945   13.4826 C.3     1  UNL1        0.0221
     30 C          64.8970   90.5599   13.9676 C.3     1  UNL1        0.0047
     31 C          63.9839   89.8857   14.9485 C.3     1  UNL1        0.0047
     32 C          63.5987   86.6067   13.5638 C.3     1  UNL1        0.0989
     33 N          62.9899   82.1549   13.8090 N.3     1  UNL1       -0.2682
     34 C          63.6462   82.7567   12.6020 C.3     1  UNL1        0.0897
     35 C          63.8491   84.2406   12.5202 C.3     1  UNL1        0.0899
     36 N          63.3957   85.1227   13.6455 N.3     1  UNL1       -0.2665
     37 C          62.7394   84.5209   14.8526 C.3     1  UNL1        0.0899
     38 C          62.5365   83.0370   14.9344 C.3     1  UNL1        0.0897
     39 C          62.7869   80.6708   13.8908 C.3     1  UNL1        0.1046
     40 C          61.4264   80.0857   13.6526 C.3     1  UNL1        0.1595
     41 C          58.9553   79.9828   14.4480 C.3     1  UNL1        0.1742
     42 O          60.2096   80.7682   14.2033 O.3     1  UNL1       -0.3496
@<TRIPOS>BOND
     1    41    42    1
     2    42    40    1
     3    40    39    1
     4    39    33    1
     5    33    34    1
     6    34    35    1
     7    35    36    1
     8    36    32    1
     9    32    23    1
    10    23    24   ar
    11    24    25   ar
    12    25    26   ar
    13    26     1    1
    14     1     2   am
    15     2     3    2
    16     2     5    1
    17     5     6   ar
    18     6     7   ar
    19     7     8   ar
    20     8     9    1
    21     8    10   ar
    22    10    12    1
    23    12    13    3
    24    13    14    1
    25    14    15   ar
    26    15    16   ar
    27    16    17   ar
    28    17    18   ar
    29    18    19   ar
    30    19    20   ar
    31    20    21   ar
    32    21    22   ar
    33    10    11   ar
    34    26    27   ar
    35    27    28   ar
    36    28    29    1
    37    29    30    1
    38    30    31    1
    39    36    37    1
    40    37    38    1
    41    38    33    1
    42    28    23   ar
    43    31    29    1
    44    11     5   ar
    45    22    14   ar
    46    22    17   ar
    47     1     4    1
@<TRIPOS>MOLECULE
*****
 42 47 0 0 0
SMALL
GASTEIGER

@<TRIPOS>ATOM
      1 N          60.5025   89.5477    9.1672 N.am    1  UNL1       -0.2804
      2 C          59.9954   88.8635    7.9325 C.2     1  UNL1        0.2495
      3 O          60.3036   87.4144    7.6976 O.2     1  UNL1       -0.2698
      4 H          60.3002   90.4988    9.3213 H       1  UNL1        0.1552
      5 C          59.1799   89.6284    6.9325 C.ar    1  UNL1        0.0543
      6 C          57.6906   89.4550    6.8891 C.ar    1  UNL1        0.0042
      7 C          56.8753   90.2199    5.8892 C.ar    1  UNL1       -0.0035
      8 C          57.5491   91.1583    4.9324 C.ar    1  UNL1       -0.0142
      9 C          56.7337   91.9232    3.9325 C.3     1  UNL1        0.0317
     10 C          59.0384   91.3317    4.9758 C.ar    1  UNL1        0.0382
     11 C          59.8538   90.5668    5.9758 C.ar    1  UNL1        0.0124
     12 C          59.7123   92.2701    4.0191 C.1     1  UNL1       -0.0585
     13 C          60.3862   93.2086    3.0624 C.1     1  UNL1       -0.0388
     14 C          61.0600   94.1471    2.1057 C.ar    1  UNL1        0.1451
     15 C          60.4595   95.3906    1.5201 C.ar    1  UNL1        0.1281
     16 N          61.4811   96.0187    0.6191 N.ar    1  UNL1       -0.2228
     17 C          62.7130   95.1634    0.6479 C.ar    1  UNL1        0.1646
     18 C          64.0381   95.2885   -0.0438 C.ar    1  UNL1        0.0405
     19 C          65.1029   94.2567    0.1833 C.ar    1  UNL1        0.0256
     20 C          64.8427   93.1000    1.1021 C.ar    1  UNL1        0.1207
     21 N          63.5176   92.9749    1.7938 N.ar    1  UNL1       -0.1616
     22 N          62.4528   94.0066    1.5667 N.ar    1  UNL1       -0.2030
     23 C          62.9488   87.2528   12.1672 C.ar    1  UNL1       -0.0100
     24 C          62.1273   86.5179   11.1499 C.ar    1  UNL1       -0.0020
     25 C          61.3118   87.2829   10.1499 C.ar    1  UNL1        0.0144
     26 C          61.3179   88.7828   10.1672 C.ar    1  UNL1        0.0502
     27 C          62.1395   89.5177   11.1845 C.ar    1  UNL1        0.0101
     28 C          62.9549   88.7527   12.1845 C.ar    1  UNL1       -0.0239
     29 C          63.7764   89.4877   13.2018 C.3     1  UNL1        0.0221
     30 C          64.3688   89.5729   14.5773 C.3     1  UNL1        0.0047
     31 C          64.6068   90.6755   13.5884 C.3     1  UNL1        0.0047
     32 C          63.7642   86.4879   13.1672 C.3     1  UNL1        0.0989
     33 N          63.1199   82.0644   13.6837 N.3     1  UNL1       -0.2682
     34 C          62.8935   82.9951   14.8380 C.3     1  UNL1        0.0897
     35 C          63.1082   84.4696   14.6659 C.3     1  UNL1        0.0899
     36 N          63.5494   85.0134   13.3394 N.3     1  UNL1       -0.2665
     37 C          63.7759   84.0827   12.1850 C.3     1  UNL1        0.0899
     38 C          63.5612   82.6082   12.3572 C.3     1  UNL1        0.0897
     39 C          62.9052   80.5898   13.8559 C.3     1  UNL1        0.1046
     40 C          61.5237   80.0154   13.7479 C.3     1  UNL1        0.1595
     41 C          59.0096   80.1305   14.3928 C.3     1  UNL1        0.1742
     42 O          60.3452   80.7977   14.2470 O.3     1  UNL1       -0.3496
@<TRIPOS>BOND
     1    41    42    1
     2    42    40    1
     3    40    39    1
     4    39    33    1
     5    33    34    1
     6    34    35    1
     7    35    36    1
     8    36    32    1
     9    32    23    1
    10    23    24   ar
    11    24    25   ar
    12    25    26   ar
    13    26     1    1
    14     1     2   am
    15     2     3    2
    16     2     5    1
    17     5     6   ar
    18     6     7   ar
    19     7     8   ar
    20     8     9    1
    21     8    10   ar
    22    10    12    1
    23    12    13    3
    24    13    14    1
    25    14    15   ar
    26    15    16   ar
    27    16    17   ar
    28    17    18   ar
    29    18    19   ar
    30    19    20   ar
    31    20    21   ar
    32    21    22   ar
    33    10    11   ar
    34    26    27   ar
    35    27    28   ar
    36    28    29    1
    37    29    30    1
    38    30    31    1
    39    36    37    1
    40    37    38    1
    41    38    33    1
    42    28    23   ar
    43    31    29    1
    44    11     5   ar
    45    22    14   ar
    46    22    17   ar
    47     1     4    1
