@<TRIPOS>MOLECULE
*****
 61 67 0 0 0
SMALL
GASTEIGER

@<TRIPOS>ATOM
      1 N          65.6509   89.9465   13.8851 N.3     1  UNL1       -0.1862
      2 C          66.0851   88.8017   14.7516 C.3     1  UNL1        0.1775
      3 C          65.3018   87.5225   14.7524 C.2     1  UNL1        0.2452
      4 O          65.7360   86.3777   15.6190 O.2     1  UNL1       -0.2732
      5 N          64.0843   87.3881   13.8867 N.am    1  UNL1       -0.2541
      6 C          63.3009   86.1088   13.8875 C.3     1  UNL1        0.1577
      7 C          62.0834   85.9744   13.0218 C.2     1  UNL1        0.2445
      8 O          61.3001   84.6952   13.0227 O.2     1  UNL1       -0.2731
      9 N          61.6491   87.1192   12.1552 N.am    1  UNL1       -0.2705
     10 C          62.4325   88.3984   12.1544 C.3     1  UNL1        0.1359
     11 C          63.6501   88.5328   13.0202 C.3     1  UNL1        0.1908
     12 N          64.4334   89.8121   13.0193 N.am    1  UNL1       -0.1863
     13 C          63.9991   90.9569   12.1527 C.2     1  UNL1        0.3191
     14 O          62.7816   90.8224   11.2870 O.2     1  UNL1       -0.2512
     15 N          64.7824   92.2361   12.1519 N.am    1  UNL1       -0.2836
     16 H          65.5816   92.3243   12.7201 H       1  UNL1        0.1513
     17 C          66.4342   91.2257   13.8842 C.3     1  UNL1        0.1188
     18 C          67.5999   93.0517   15.3185 C.2     1  UNL1       -0.0034
     19 C          67.2373   91.6142   15.0901 C.2     1  UNL1       -0.0071
     20 C          63.7351   84.9641   14.7541 C.3     1  UNL1        0.0556
     21 C          63.4425   83.5537   14.3357 C.ar    1  UNL1       -0.0198
     22 C          62.2847   82.8167   14.9410 C.ar    1  UNL1       -0.0011
     23 C          61.9920   81.4063   14.5226 C.ar    1  UNL1        0.0363
     24 C          62.8571   80.7328   13.4990 C.ar    1  UNL1        0.1337
     25 O          62.5645   79.3224   13.0806 O.3     1  UNL1       -0.5055
     26 C          64.0150   81.4697   12.8936 C.ar    1  UNL1        0.0363
     27 C          64.3077   82.8801   13.3120 C.ar    1  UNL1       -0.0011
     28 H          61.8412   78.8620   13.4587 H       1  UNL1        0.2922
     29 C          60.4316   86.9847   11.2895 C.3     1  UNL1        0.1217
     30 C          60.5541   87.1039    9.7992 C.ar    1  UNL1        0.0135
     31 C          61.0344   85.9355    8.9904 C.ar    1  UNL1       -0.0012
     32 C          61.1568   86.0547    7.5002 C.ar    1  UNL1       -0.0002
     33 C          60.7990   87.3422    6.8188 C.ar    1  UNL1        0.0016
     34 C          60.3187   88.5105    7.6277 C.ar    1  UNL1        0.0214
     35 C          59.8964   89.8958    7.2372 C.ar    1  UNL1        0.0719
     36 C          59.5129   90.6329    8.4860 C.ar    1  UNL1        0.0805
     37 N          59.6982   89.7031    9.6483 N.ar    1  UNL1       -0.3241
     38 C          59.4323   90.0279   11.0884 C.3     1  UNL1        0.1305
     39 C          60.1963   88.3914    9.1179 C.ar    1  UNL1        0.0577
     40 C          59.8634   90.4473    5.8425 C.2     1  UNL1        0.2473
     41 O          58.6528   90.2382    4.9818 O.2     1  UNL1       -0.2701
     42 N          61.0409   91.2079    5.3087 N.am    1  UNL1       -0.3024
     43 H          61.8354   91.3451    5.8736 H       1  UNL1        0.1497
     44 C          61.0079   91.7594    3.9142 C.3     1  UNL1        0.0746
     45 C          62.1929   91.5861    3.0110 C.3     1  UNL1        0.0369
     46 C          62.1600   92.1376    1.6164 C.3     1  UNL1        0.0738
     47 N          60.9421   92.8622    1.1250 N.3     1  UNL1       -0.2725
     48 C          59.7571   93.0355    2.0282 C.3     1  UNL1        0.0738
     49 C          59.7900   92.4840    3.4228 C.3     1  UNL1        0.0369
     50 C          60.9092   93.4137   -0.2695 C.3     1  UNL1        0.0747
     51 C          60.2177   92.6519   -1.3611 C.3     1  UNL1        0.0490
     52 C          58.7332   92.7748   -1.5372 C.3     1  UNL1        0.1386
     53 O          57.8103   91.8669   -0.7795 O.3     1  UNL1       -0.3819
     54 H          57.9346   90.9538   -1.0821 H       1  UNL1        0.2104
     55 C          64.3482   93.3808   11.2854 C.3     1  UNL1        0.1177
     56 C          65.3718   94.2004   10.5569 C.ar    1  UNL1       -0.0025
     57 C          65.2270   95.6917   10.4868 C.ar    1  UNL1       -0.0026
     58 C          66.2505   96.5112    9.7584 C.ar    1  UNL1       -0.0003
     59 C          67.4189   95.8395    9.1000 C.ar    1  UNL1       -0.0000
     60 C          67.5638   94.3481    9.1700 C.ar    1  UNL1       -0.0003
     61 C          66.5403   93.5285    9.8985 C.ar    1  UNL1       -0.0026
@<TRIPOS>BOND
     1    18    19    2
     2    19    17    1
     3    17     1    1
     4     1     2    1
     5     2     3    1
     6     3     4    2
     7     3     5   am
     8     5     6    1
     9     6    20    1
    10    20    21    1
    11    21    22   ar
    12    22    23   ar
    13    23    24   ar
    14    24    25    1
    15    24    26   ar
    16    26    27   ar
    17     6     7    1
    18     7     8    2
    19     7     9   am
    20     9    29    1
    21    29    30    1
    22    30    31   ar
    23    31    32   ar
    24    32    33   ar
    25    33    34   ar
    26    34    35   ar
    27    35    40    1
    28    40    41    2
    29    40    42   am
    30    42    44    1
    31    44    45    1
    32    45    46    1
    33    46    47    1
    34    47    50    1
    35    50    51    1
    36    51    52    1
    37    52    53    1
    38    47    48    1
    39    48    49    1
    40    35    36   ar
    41    36    37   ar
    42    37    38    1
    43    37    39   ar
    44     9    10    1
    45    11    10    1
    46    11    12    1
    47    12    13   am
    48    13    14    2
    49    13    15   am
    50    15    55    1
    51    55    56    1
    52    56    57   ar
    53    57    58   ar
    54    58    59   ar
    55    59    60   ar
    56    60    61   ar
    57    12     1    1
    58    61    56   ar
    59    11     5    1
    60    27    21   ar
    61    39    30   ar
    62    39    34   ar
    63    49    44    1
    64    25    28    1
    65    42    43    1
    66    53    54    1
    67    15    16    1
@<TRIPOS>MOLECULE
*****
 61 67 0 0 0
SMALL
GASTEIGER

@<TRIPOS>ATOM
      1 N          65.3646   89.1747   14.5058 N.3     1  UNL1       -0.1862
      2 C          65.5612   87.9137   15.2940 C.3     1  UNL1        0.1775
      3 C          64.7640   86.6880   14.9592 C.2     1  UNL1        0.2452
      4 O          64.9606   85.4269   15.7474 O.2     1  UNL1       -0.2732
      5 N          63.7702   86.7232   13.8362 N.am    1  UNL1       -0.2541
      6 C          62.9730   85.4975   13.5014 C.3     1  UNL1        0.1577
      7 C          61.9792   85.5328   12.3784 C.2     1  UNL1        0.2445
      8 O          61.1820   84.3071   12.0436 O.2     1  UNL1       -0.2731
      9 N          61.7826   86.7938   11.5902 N.am    1  UNL1       -0.2705
     10 C          62.5798   88.0196   11.9250 C.3     1  UNL1        0.1359
     11 C          63.5736   87.9842   13.0481 C.3     1  UNL1        0.1908
     12 N          64.3708   89.2099   13.3829 N.am    1  UNL1       -0.1863
     13 C          64.1742   90.4710   12.5947 C.2     1  UNL1        0.3191
     14 O          63.1804   90.5063   11.4717 O.2     1  UNL1       -0.2512
     15 N          64.9714   91.6967   12.9295 N.am    1  UNL1       -0.2836
     16 H          65.6237   91.6735   13.6665 H       1  UNL1        0.1513
     17 C          66.1618   90.4004   14.8406 C.3     1  UNL1        0.1188
     18 C          66.3582   92.6956   16.0421 C.2     1  UNL1       -0.0034
     19 C          65.5388   91.5045   15.6423 C.2     1  UNL1       -0.0071
     20 C          63.1696   84.2366   14.2895 C.3     1  UNL1        0.0556
     21 C          63.0311   82.9027   13.6174 C.ar    1  UNL1       -0.0198
     22 C          62.1114   81.8658   14.1909 C.ar    1  UNL1       -0.0011
     23 C          61.9729   80.5320   13.5188 C.ar    1  UNL1        0.0363
     24 C          62.7541   80.2351   12.2732 C.ar    1  UNL1        0.1337
     25 O          62.6156   78.9012   11.6011 O.3     1  UNL1       -0.5055
     26 C          63.6739   81.2720   11.6997 C.ar    1  UNL1        0.0363
     27 C          63.8124   82.6058   12.3718 C.ar    1  UNL1       -0.0011
     28 H          62.0411   78.2535   11.9594 H       1  UNL1        0.2922
     29 C          60.7888   86.8291   10.4673 C.3     1  UNL1        0.1217
     30 C          60.3861   88.1417    9.8630 C.ar    1  UNL1        0.0135
     31 C          60.1228   89.3248   10.7466 C.ar    1  UNL1       -0.0012
     32 C          59.7202   90.6374   10.1424 C.ar    1  UNL1       -0.0002
     33 C          59.5809   90.7668    8.6546 C.ar    1  UNL1        0.0016
     34 C          59.8442   89.5836    7.7709 C.ar    1  UNL1        0.0214
     35 C          59.7879   89.4106    6.2820 C.ar    1  UNL1        0.0719
     36 C          60.1557   87.9912    5.9660 C.ar    1  UNL1        0.0805
     37 N          60.4393   87.2870    7.2596 N.ar    1  UNL1       -0.3241
     38 C          60.8444   85.8507    7.4112 C.3     1  UNL1        0.1305
     39 C          60.2468   88.2711    8.3751 C.ar    1  UNL1        0.0577
     40 C          59.4271   90.4710    5.2842 C.2     1  UNL1        0.2473
     41 O          57.9921   90.8640    5.0932 O.2     1  UNL1       -0.2701
     42 N          60.5012   91.1384    4.4774 N.am    1  UNL1       -0.3024
     43 H          61.4430   90.8805    4.6028 H       1  UNL1        0.1497
     44 C          60.1405   92.1987    3.4797 C.3     1  UNL1        0.0746
     45 C          60.2198   93.6468    3.8626 C.3     1  UNL1        0.0369
     46 C          59.8591   94.7072    2.8649 C.3     1  UNL1        0.0738
     47 N          59.4191   94.3195    1.4843 N.3     1  UNL1       -0.2725
     48 C          59.3398   92.8713    1.1014 C.3     1  UNL1        0.0738
     49 C          59.7005   91.8109    2.0991 C.3     1  UNL1        0.0369
     50 C          59.0584   95.3798    0.4865 C.3     1  UNL1        0.0747
     51 C          58.6916   94.9959   -0.9164 C.3     1  UNL1        0.0490
     52 C          57.2487   94.8909   -1.3125 C.3     1  UNL1        0.1386
     53 O          56.5101   93.5996   -1.1198 O.3     1  UNL1       -0.3819
     54 H          56.8878   92.9212   -1.7012 H       1  UNL1        0.2104
     55 C          64.7748   92.9577   12.1413 C.3     1  UNL1        0.1177
     56 C          65.8020   93.3797   11.1330 C.ar    1  UNL1       -0.0025
     57 C          66.8217   92.3945   10.6437 C.ar    1  UNL1       -0.0026
     58 C          67.8489   92.8166    9.6354 C.ar    1  UNL1       -0.0003
     59 C          67.8564   94.2239    9.1163 C.ar    1  UNL1       -0.0000
     60 C          66.8366   95.2092    9.6057 C.ar    1  UNL1       -0.0003
     61 C          65.8095   94.7871   10.6140 C.ar    1  UNL1       -0.0026
@<TRIPOS>BOND
     1    18    19    2
     2    19    17    1
     3    17     1    1
     4     1     2    1
     5     2     3    1
     6     3     4    2
     7     3     5   am
     8     5     6    1
     9     6    20    1
    10    20    21    1
    11    21    22   ar
    12    22    23   ar
    13    23    24   ar
    14    24    25    1
    15    24    26   ar
    16    26    27   ar
    17     6     7    1
    18     7     8    2
    19     7     9   am
    20     9    29    1
    21    29    30    1
    22    30    31   ar
    23    31    32   ar
    24    32    33   ar
    25    33    34   ar
    26    34    35   ar
    27    35    40    1
    28    40    41    2
    29    40    42   am
    30    42    44    1
    31    44    45    1
    32    45    46    1
    33    46    47    1
    34    47    50    1
    35    50    51    1
    36    51    52    1
    37    52    53    1
    38    47    48    1
    39    48    49    1
    40    35    36   ar
    41    36    37   ar
    42    37    38    1
    43    37    39   ar
    44     9    10    1
    45    11    10    1
    46    11    12    1
    47    12    13   am
    48    13    14    2
    49    13    15   am
    50    15    55    1
    51    55    56    1
    52    56    57   ar
    53    57    58   ar
    54    58    59   ar
    55    59    60   ar
    56    60    61   ar
    57    12     1    1
    58    61    56   ar
    59    11     5    1
    60    27    21   ar
    61    39    30   ar
    62    39    34   ar
    63    49    44    1
    64    25    28    1
    65    42    43    1
    66    53    54    1
    67    15    16    1
@<TRIPOS>MOLECULE
*****
 61 67 0 0 0
SMALL
GASTEIGER

@<TRIPOS>ATOM
      1 N          64.6069   83.2263   13.3075 N.3     1  UNL1       -0.1862
      2 C          65.2354   84.0856   14.3641 C.3     1  UNL1        0.1775
      3 C          64.8159   85.5180   14.5133 C.2     1  UNL1        0.2452
      4 O          65.4445   86.3774   15.5700 O.2     1  UNL1       -0.2732
      5 N          63.7680   86.0911   13.6059 N.am    1  UNL1       -0.2541
      6 C          63.3485   87.5235   13.7552 C.3     1  UNL1        0.1577
      7 C          62.3006   88.0966   12.8478 C.2     1  UNL1        0.2445
      8 O          61.8812   89.5290   12.9971 O.2     1  UNL1       -0.2731
      9 N          61.6720   87.2372   11.7911 N.am    1  UNL1       -0.2705
     10 C          62.0915   85.8048   11.6419 C.3     1  UNL1        0.1359
     11 C          63.1395   85.2317   12.5493 C.3     1  UNL1        0.1908
     12 N          63.5590   83.7993   12.4001 N.am    1  UNL1       -0.1863
     13 C          62.9304   82.9400   11.3434 C.2     1  UNL1        0.3191
     14 O          61.8824   83.5130   10.4360 O.2     1  UNL1       -0.2512
     15 N          63.3498   81.5076   11.1942 N.am    1  UNL1       -0.2836
     16 H          64.0377   81.1315   11.7897 H       1  UNL1        0.1513
     17 C          65.0263   81.7939   13.1582 C.3     1  UNL1        0.1188
     18 C          62.8874   80.6571   14.0977 C.2     1  UNL1       -0.0034
     19 C          64.3823   80.7322   13.9997 C.2     1  UNL1       -0.0071
     20 C          63.9770   88.3828   14.8118 C.3     1  UNL1        0.0556
     21 C          64.4870   89.7494   14.4618 C.ar    1  UNL1       -0.0198
     22 C          64.9511   90.6770   15.5453 C.ar    1  UNL1       -0.0011
     23 C          65.4611   92.0435   15.1953 C.ar    1  UNL1        0.0363
     24 C          65.5068   92.4825   13.7617 C.ar    1  UNL1        0.1337
     25 O          66.0167   93.8490   13.4117 O.3     1  UNL1       -0.5055
     26 C          65.0426   91.5549   12.6781 C.ar    1  UNL1        0.0363
     27 C          64.5327   90.1884   13.0281 C.ar    1  UNL1       -0.0011
     28 H          66.3067   94.4285   14.0886 H       1  UNL1        0.2922
     29 C          60.6241   87.8103   10.8838 C.3     1  UNL1        0.1217
     30 C          60.9783   88.9144    9.9322 C.ar    1  UNL1        0.0135
     31 C          62.0200   89.9252   10.3105 C.ar    1  UNL1       -0.0012
     32 C          62.3742   91.0293    9.3590 C.ar    1  UNL1       -0.0002
     33 C          61.6867   91.1226    8.0291 C.ar    1  UNL1        0.0016
     34 C          60.6450   90.1118    7.6508 C.ar    1  UNL1        0.0214
     35 C          59.8050   89.9492    6.4187 C.ar    1  UNL1        0.0719
     36 C          58.9317   88.7446    6.6088 C.ar    1  UNL1        0.0805
     37 N          59.2319   88.1627    7.9583 N.ar    1  UNL1       -0.3241
     38 C          58.5866   86.9490    8.5585 C.3     1  UNL1        0.1305
     39 C          60.2908   89.0077    8.6023 C.ar    1  UNL1        0.0577
     40 C          59.8334   90.8356    5.2089 C.2     1  UNL1        0.2473
     41 O          58.5496   91.3321    4.6126 O.2     1  UNL1       -0.2701
     42 N          61.1455   91.2256    4.5955 N.am    1  UNL1       -0.3024
     43 H          61.9880   90.8998    4.9869 H       1  UNL1        0.1497
     44 C          61.1739   92.1120    3.3858 C.3     1  UNL1        0.0746
     45 C          60.0489   93.0713    3.1324 C.3     1  UNL1        0.0369
     46 C          60.0773   93.9577    1.9226 C.3     1  UNL1        0.0738
     47 N          61.2306   93.8849    0.9664 N.3     1  UNL1       -0.2725
     48 C          62.3556   92.9256    1.2198 C.3     1  UNL1        0.0738
     49 C          62.3272   92.0392    2.4295 C.3     1  UNL1        0.0369
     50 C          61.2591   94.7713   -0.2434 C.3     1  UNL1        0.0747
     51 C          60.8487   94.2289   -1.5804 C.3     1  UNL1        0.0490
     52 C          59.7202   93.2454   -1.6766 C.3     1  UNL1        0.1386
     53 O          59.7234   92.0141   -0.8200 O.3     1  UNL1       -0.3819
     54 H          60.4611   91.4407   -1.0808 H       1  UNL1        0.2104
     55 C          62.7213   80.6482   10.1376 C.3     1  UNL1        0.1177
     56 C          63.0646   79.1904   10.0543 C.ar    1  UNL1       -0.0025
     57 C          62.4916   78.2269   11.0510 C.ar    1  UNL1       -0.0026
     58 C          62.8348   76.7691   10.9678 C.ar    1  UNL1       -0.0003
     59 C          63.7510   76.2747    9.8879 C.ar    1  UNL1       -0.0000
     60 C          64.3240   77.2382    8.8912 C.ar    1  UNL1       -0.0003
     61 C          63.9808   78.6960    8.9744 C.ar    1  UNL1       -0.0026
@<TRIPOS>BOND
     1    18    19    2
     2    19    17    1
     3    17     1    1
     4     1     2    1
     5     2     3    1
     6     3     4    2
     7     3     5   am
     8     5     6    1
     9     6    20    1
    10    20    21    1
    11    21    22   ar
    12    22    23   ar
    13    23    24   ar
    14    24    25    1
    15    24    26   ar
    16    26    27   ar
    17     6     7    1
    18     7     8    2
    19     7     9   am
    20     9    29    1
    21    29    30    1
    22    30    31   ar
    23    31    32   ar
    24    32    33   ar
    25    33    34   ar
    26    34    35   ar
    27    35    40    1
    28    40    41    2
    29    40    42   am
    30    42    44    1
    31    44    45    1
    32    45    46    1
    33    46    47    1
    34    47    50    1
    35    50    51    1
    36    51    52    1
    37    52    53    1
    38    47    48    1
    39    48    49    1
    40    35    36   ar
    41    36    37   ar
    42    37    38    1
    43    37    39   ar
    44     9    10    1
    45    11    10    1
    46    11    12    1
    47    12    13   am
    48    13    14    2
    49    13    15   am
    50    15    55    1
    51    55    56    1
    52    56    57   ar
    53    57    58   ar
    54    58    59   ar
    55    59    60   ar
    56    60    61   ar
    57    12     1    1
    58    61    56   ar
    59    11     5    1
    60    27    21   ar
    61    39    30   ar
    62    39    34   ar
    63    49    44    1
    64    25    28    1
    65    42    43    1
    66    53    54    1
    67    15    16    1
@<TRIPOS>MOLECULE
*****
 61 67 0 0 0
SMALL
GASTEIGER

@<TRIPOS>ATOM
      1 N          63.5197   90.8354   10.5514 N.3     1  UNL1       -0.1862
      2 C          64.3134   92.0963   10.7245 C.3     1  UNL1        0.1775
      3 C          64.7960   92.4977   12.0868 C.2     1  UNL1        0.2452
      4 O          65.5897   93.7587   12.2599 O.2     1  UNL1       -0.2732
      5 N          64.4848   91.6382   13.2761 N.am    1  UNL1       -0.2541
      6 C          64.9674   92.0396   14.6384 C.3     1  UNL1        0.1577
      7 C          64.6562   91.1801   15.8277 C.2     1  UNL1        0.2445
      8 O          65.1388   91.5815   17.1900 O.2     1  UNL1       -0.2731
      9 N          63.8625   89.9191   15.6546 N.am    1  UNL1       -0.2705
     10 C          63.3799   89.5177   14.2922 C.3     1  UNL1        0.1359
     11 C          63.6911   90.3773   13.1030 C.3     1  UNL1        0.1908
     12 N          63.2086   89.9759   11.7406 N.am    1  UNL1       -0.1863
     13 C          62.4148   88.7148   11.5675 C.2     1  UNL1        0.3191
     14 O          62.1037   87.8553   12.7568 O.2     1  UNL1       -0.2512
     15 N          61.9322   88.3134   10.2052 N.am    1  UNL1       -0.2836
     16 H          62.1365   88.8776    9.4246 H       1  UNL1        0.1513
     17 C          63.0371   90.4340    9.1890 C.3     1  UNL1        0.1188
     18 C          60.4826   90.4469    9.6623 C.2     1  UNL1       -0.0034
     19 C          61.6384   90.7658    8.7609 C.2     1  UNL1       -0.0071
     20 C          65.7611   93.3006   14.8115 C.3     1  UNL1        0.0556
     21 C          67.1295   93.2474   15.4237 C.ar    1  UNL1       -0.0198
     22 C          67.9666   94.4898   15.4980 C.ar    1  UNL1       -0.0011
     23 C          69.3350   94.4366   16.1102 C.ar    1  UNL1        0.0363
     24 C          69.8662   93.1410   16.6480 C.ar    1  UNL1        0.1337
     25 O          71.2346   93.0878   17.2602 O.3     1  UNL1       -0.5055
     26 C          69.0290   91.8985   16.5737 C.ar    1  UNL1        0.0363
     27 C          67.6607   91.9517   15.9615 C.ar    1  UNL1       -0.0011
     28 H          71.7575   93.8639   17.3066 H       1  UNL1        0.2922
     29 C          63.5513   89.0596   16.8438 C.3     1  UNL1        0.1217
     30 C          63.0085   87.6751   16.6472 C.ar    1  UNL1        0.0135
     31 C          61.8169   87.2178   17.4352 C.ar    1  UNL1       -0.0012
     32 C          61.2740   85.8334   17.2386 C.ar    1  UNL1       -0.0002
     33 C          61.9227   84.9063   16.2540 C.ar    1  UNL1        0.0016
     34 C          63.1143   85.3636   15.4659 C.ar    1  UNL1        0.0214
     35 C          63.9571   84.6778   14.4318 C.ar    1  UNL1        0.0719
     36 C          65.0208   85.6383   13.9893 C.ar    1  UNL1        0.0805
     37 N          64.8355   86.9177   14.7499 N.ar    1  UNL1       -0.3241
     38 C          65.6801   88.1506   14.6207 C.3     1  UNL1        0.1305
     39 C          63.6572   86.7480   15.6626 C.ar    1  UNL1        0.0577
     40 C          63.7691   83.2772   13.9285 C.2     1  UNL1        0.2473
     41 O          64.0523   82.1121   14.8298 O.2     1  UNL1       -0.2701
     42 N          63.2980   83.0419   12.5240 N.am    1  UNL1       -0.3024
     43 H          63.1122   83.8066   11.9325 H       1  UNL1        0.1497
     44 C          63.1100   81.6414   12.0207 C.3     1  UNL1        0.0746
     45 C          62.7497   80.5430   12.9766 C.3     1  UNL1        0.0369
     46 C          62.5616   79.1425   12.4734 C.3     1  UNL1        0.0738
     47 N          62.7340   78.8404   11.0142 N.3     1  UNL1       -0.2725
     48 C          63.0944   79.9388   10.0584 C.3     1  UNL1        0.0738
     49 C          63.2824   81.3393   10.5616 C.3     1  UNL1        0.0369
     50 C          62.5460   77.4400   10.5109 C.3     1  UNL1        0.0747
     51 C          63.7332   76.5396   10.3375 C.3     1  UNL1        0.0490
     52 C          64.5596   76.6203    9.0883 C.3     1  UNL1        0.1386
     53 O          64.9041   75.3698    8.3349 O.3     1  UNL1       -0.3819
     54 H          65.4851   74.8146    8.8783 H       1  UNL1        0.2104
     55 C          61.1385   87.0525   10.0321 C.3     1  UNL1        0.1177
     56 C          61.3538   86.1907    8.8234 C.ar    1  UNL1       -0.0025
     57 C          60.2290   85.9569    7.8590 C.ar    1  UNL1       -0.0026
     58 C          60.4443   85.0951    6.6503 C.ar    1  UNL1       -0.0003
     59 C          61.7844   84.4672    6.4060 C.ar    1  UNL1       -0.0000
     60 C          62.9093   84.7010    7.3703 C.ar    1  UNL1       -0.0003
     61 C          62.6940   85.5628    8.5791 C.ar    1  UNL1       -0.0026
@<TRIPOS>BOND
     1    18    19    2
     2    19    17    1
     3    17     1    1
     4     1     2    1
     5     2     3    1
     6     3     4    2
     7     3     5   am
     8     5     6    1
     9     6    20    1
    10    20    21    1
    11    21    22   ar
    12    22    23   ar
    13    23    24   ar
    14    24    25    1
    15    24    26   ar
    16    26    27   ar
    17     6     7    1
    18     7     8    2
    19     7     9   am
    20     9    29    1
    21    29    30    1
    22    30    31   ar
    23    31    32   ar
    24    32    33   ar
    25    33    34   ar
    26    34    35   ar
    27    35    40    1
    28    40    41    2
    29    40    42   am
    30    42    44    1
    31    44    45    1
    32    45    46    1
    33    46    47    1
    34    47    50    1
    35    50    51    1
    36    51    52    1
    37    52    53    1
    38    47    48    1
    39    48    49    1
    40    35    36   ar
    41    36    37   ar
    42    37    38    1
    43    37    39   ar
    44     9    10    1
    45    11    10    1
    46    11    12    1
    47    12    13   am
    48    13    14    2
    49    13    15   am
    50    15    55    1
    51    55    56    1
    52    56    57   ar
    53    57    58   ar
    54    58    59   ar
    55    59    60   ar
    56    60    61   ar
    57    12     1    1
    58    61    56   ar
    59    11     5    1
    60    27    21   ar
    61    39    30   ar
    62    39    34   ar
    63    49    44    1
    64    25    28    1
    65    42    43    1
    66    53    54    1
    67    15    16    1
