@<TRIPOS>MOLECULE
*****
 25 28 0 0 0
SMALL
GASTEIGER

@<TRIPOS>ATOM
      1 C          65.3033   92.6042   12.5143 C.ar    1  UNL1        0.1535
      2 C          65.9799   92.3103   13.8203 C.ar    1  UNL1        0.1332
      3 N          65.5705   91.1119   14.6241 N.ar    1  UNL1       -0.2394
      4 C          64.4845   90.2073   14.1218 C.ar    1  UNL1        0.0991
      5 C          63.8078   90.5012   12.8158 C.ar    1  UNL1        0.1018
      6 N          64.2173   91.6996   12.0120 N.ar    1  UNL1       -0.2274
      7 C          64.0751   89.0088   14.9256 C.ar    1  UNL1        0.0222
      8 C          64.4894   87.6352   14.4882 C.ar    1  UNL1        0.0222
      9 C          64.0800   86.4367   15.2921 C.ar    1  UNL1        0.0989
     10 N          63.2562   86.6119   16.5333 N.ar    1  UNL1       -0.2423
     11 C          62.8419   87.9857   16.9707 C.ar    1  UNL1        0.0989
     12 C          63.2513   89.1841   16.1669 C.ar    1  UNL1        0.0222
     13 C          62.7218   89.5966   12.3135 C.ar    1  UNL1        0.0383
     14 C          63.0746   88.3330   11.5865 C.ar    1  UNL1        0.0047
     15 C          61.9886   87.4284   11.0842 C.ar    1  UNL1        0.0207
     16 C          60.5497   87.7875   11.3090 C.ar    1  UNL1        0.0989
     17 N          60.1968   89.0512   12.0360 N.ar    1  UNL1       -0.2423
     18 C          61.2829   89.9557   12.5383 C.ar    1  UNL1        0.1004
     19 O          67.1313   92.2769   10.1581 O.2     1  UNL1       -0.2747
     20 C          66.6267   93.6390   10.5324 C.2     1  UNL1        0.2267
     21 N          65.7127   93.8027   11.7104 N.am    1  UNL1       -0.2681
     22 H          65.3816   94.6966   11.9561 H       1  UNL1        0.1563
     23 C          67.0361   94.8375    9.7286 C.3     1  UNL1        0.0769
     24 C          67.1813   96.3245    9.5955 C.3     1  UNL1        0.0096
     25 C          67.6000   95.4263    8.4695 C.3     1  UNL1        0.0096
@<TRIPOS>BOND
     1    19    20    2
     2    20    21   am
     3    21     1    1
     4     1     2   ar
     5     2     3   ar
     6     3     4   ar
     7     4     7    1
     8     7     8   ar
     9     8     9   ar
    10     9    10   ar
    11    10    11   ar
    12    11    12   ar
    13     4     5   ar
    14     5    13    1
    15    13    14   ar
    16    14    15   ar
    17    15    16   ar
    18    16    17   ar
    19    17    18   ar
    20     5     6   ar
    21    20    23    1
    22    23    24    1
    23    24    25    1
    24     6     1   ar
    25    25    23    1
    26    12     7   ar
    27    18    13   ar
    28    21    22    1
@<TRIPOS>MOLECULE
*****
 25 28 0 0 0
SMALL
GASTEIGER

@<TRIPOS>ATOM
      1 C          62.7656   90.8013   10.9148 C.ar    1  UNL1        0.1535
      2 C          62.9541   90.3013   12.3163 C.ar    1  UNL1        0.1332
      3 N          64.1330   90.7582   13.1234 N.ar    1  UNL1       -0.2394
      4 C          65.1234   91.7152   12.5289 C.ar    1  UNL1        0.0991
      5 C          64.9348   92.2152   11.1274 C.ar    1  UNL1        0.1018
      6 N          63.7560   91.7582   10.3203 N.ar    1  UNL1       -0.2274
      7 C          66.3023   92.1721   13.3361 C.ar    1  UNL1        0.0222
      8 C          66.1229   93.2091   14.4049 C.ar    1  UNL1        0.0222
      9 C          67.3018   93.6661   15.2120 C.ar    1  UNL1        0.0989
     10 N          68.6601   93.0859   14.9503 N.ar    1  UNL1       -0.2423
     11 C          68.8395   92.0488   13.8815 C.ar    1  UNL1        0.0989
     12 C          67.6606   91.5920   13.0744 C.ar    1  UNL1        0.0222
     13 C          65.9252   93.1721   10.5329 C.ar    1  UNL1        0.0383
     14 C          67.1272   92.6503    9.8029 C.ar    1  UNL1        0.0047
     15 C          68.1176   93.6073    9.2085 C.ar    1  UNL1        0.0207
     16 C          67.9059   95.0860    9.3439 C.ar    1  UNL1        0.0989
     17 N          66.7039   95.6078   10.0739 N.ar    1  UNL1       -0.2423
     18 C          65.7136   94.6509   10.6683 C.ar    1  UNL1        0.1004
     19 O          62.6345   87.9744    9.9188 O.2     1  UNL1       -0.2747
     20 C          61.5211   88.9309    9.6097 C.2     1  UNL1        0.2267
     21 N          61.5867   90.3443   10.1076 N.am    1  UNL1       -0.2681
     22 H          60.8560   90.9721    9.9047 H       1  UNL1        0.1563
     23 C          60.3422   88.4740    8.8025 C.3     1  UNL1        0.0769
     24 C          59.3674   88.6989    7.6849 C.3     1  UNL1        0.0096
     25 C          59.2752   87.4577    8.5221 C.3     1  UNL1        0.0096
@<TRIPOS>BOND
     1    19    20    2
     2    20    21   am
     3    21     1    1
     4     1     2   ar
     5     2     3   ar
     6     3     4   ar
     7     4     7    1
     8     7     8   ar
     9     8     9   ar
    10     9    10   ar
    11    10    11   ar
    12    11    12   ar
    13     4     5   ar
    14     5    13    1
    15    13    14   ar
    16    14    15   ar
    17    15    16   ar
    18    16    17   ar
    19    17    18   ar
    20     5     6   ar
    21    20    23    1
    22    23    24    1
    23    24    25    1
    24     6     1   ar
    25    25    23    1
    26    12     7   ar
    27    18    13   ar
    28    21    22    1
@<TRIPOS>MOLECULE
*****
 25 28 0 0 0
SMALL
GASTEIGER

@<TRIPOS>ATOM
      1 C          63.9052   89.9807   14.5027 C.ar    1  UNL1        0.1535
      2 C          63.3204   90.3064   13.1603 C.ar    1  UNL1        0.1332
      3 N          64.0232   91.2691   12.2498 N.ar    1  UNL1       -0.2394
      4 C          65.3107   91.9062   12.6815 C.ar    1  UNL1        0.0991
      5 C          65.8955   91.5805   14.0239 C.ar    1  UNL1        0.1018
      6 N          65.1927   90.6178   14.9345 N.ar    1  UNL1       -0.2274
      7 C          66.0135   92.8690   11.7709 C.ar    1  UNL1        0.0222
      8 C          66.8146   92.3558   10.6112 C.ar    1  UNL1        0.0222
      9 C          67.5174   93.3186    9.7005 C.ar    1  UNL1        0.0989
     10 N          67.4190   94.7945    9.9496 N.ar    1  UNL1       -0.2423
     11 C          66.6178   95.3076   11.1093 C.ar    1  UNL1        0.0989
     12 C          65.9151   94.3449   12.0199 C.ar    1  UNL1        0.0222
     13 C          67.1830   92.2176   14.4557 C.ar    1  UNL1        0.0383
     14 C          67.1812   93.2489   15.5448 C.ar    1  UNL1        0.0047
     15 C          68.4687   93.8860   15.9766 C.ar    1  UNL1        0.0207
     16 C          69.7580   93.4918   15.3192 C.ar    1  UNL1        0.0989
     17 N          69.7598   92.4605   14.2300 N.ar    1  UNL1       -0.2423
     18 C          68.4723   91.8234   13.7983 C.ar    1  UNL1        0.1004
     19 O          64.9852   87.2066   14.8743 O.2     1  UNL1       -0.2747
     20 C          63.7424   87.6309   15.5991 C.2     1  UNL1        0.2267
     21 N          63.2024   89.0179   15.4134 N.am    1  UNL1       -0.2681
     22 H          62.3867   89.2964   15.8891 H       1  UNL1        0.1563
     23 C          63.0396   86.6682   16.5098 C.3     1  UNL1        0.0769
     24 C          62.4977   86.3215   17.8648 C.3     1  UNL1        0.0096
     25 C          62.3644   85.3473   16.7321 C.3     1  UNL1        0.0096
@<TRIPOS>BOND
     1    19    20    2
     2    20    21   am
     3    21     1    1
     4     1     2   ar
     5     2     3   ar
     6     3     4   ar
     7     4     7    1
     8     7     8   ar
     9     8     9   ar
    10     9    10   ar
    11    10    11   ar
    12    11    12   ar
    13     4     5   ar
    14     5    13    1
    15    13    14   ar
    16    14    15   ar
    17    15    16   ar
    18    16    17   ar
    19    17    18   ar
    20     5     6   ar
    21    20    23    1
    22    23    24    1
    23    24    25    1
    24     6     1   ar
    25    25    23    1
    26    12     7   ar
    27    18    13   ar
    28    21    22    1
@<TRIPOS>MOLECULE
*****
 25 28 0 0 0
SMALL
GASTEIGER

@<TRIPOS>ATOM
      1 C          62.6276   90.6620   10.5188 C.ar    1  UNL1        0.1535
      2 C          63.6342   91.7557   10.3183 C.ar    1  UNL1        0.1332
      3 N          64.6074   92.0886   11.4102 N.ar    1  UNL1       -0.2394
      4 C          64.5739   91.3277   12.7024 C.ar    1  UNL1        0.0991
      5 C          63.5672   90.2339   12.9028 C.ar    1  UNL1        0.1018
      6 N          62.5941   89.9010   11.8110 N.ar    1  UNL1       -0.2274
      7 C          65.5471   91.6606   13.7942 C.ar    1  UNL1        0.0222
      8 C          65.0454   92.0950   15.1394 C.ar    1  UNL1        0.0222
      9 C          66.0186   92.4279   16.2312 C.ar    1  UNL1        0.0989
     10 N          67.4936   92.3264   15.9778 N.ar    1  UNL1       -0.2423
     11 C          67.9953   91.8919   14.6326 C.ar    1  UNL1        0.0989
     12 C          67.0221   91.5590   13.5408 C.ar    1  UNL1        0.0222
     13 C          63.5338   89.4729   14.1950 C.ar    1  UNL1        0.0383
     14 C          64.2535   88.1622   14.3124 C.ar    1  UNL1        0.0047
     15 C          64.2200   87.4012   15.6046 C.ar    1  UNL1        0.0207
     16 C          63.4668   87.9510   16.7795 C.ar    1  UNL1        0.0989
     17 N          62.7470   89.2618   16.6621 N.ar    1  UNL1       -0.2423
     18 C          62.7805   90.0227   15.3699 C.ar    1  UNL1        0.1004
     19 O          61.4051   87.9257   10.3819 O.2     1  UNL1       -0.2747
     20 C          61.0431   88.9610    9.3585 C.2     1  UNL1        0.2267
     21 N          61.6543   90.3290    9.4269 N.am    1  UNL1       -0.2681
     22 H          61.4168   91.0085    8.7552 H       1  UNL1        0.1563
     23 C          60.0699   88.6281    8.2666 C.3     1  UNL1        0.0769
     24 C          59.2989   89.0336    7.0456 C.3     1  UNL1        0.0096
     25 C          59.1552   87.6459    7.5966 C.3     1  UNL1        0.0096
@<TRIPOS>BOND
     1    19    20    2
     2    20    21   am
     3    21     1    1
     4     1     2   ar
     5     2     3   ar
     6     3     4   ar
     7     4     7    1
     8     7     8   ar
     9     8     9   ar
    10     9    10   ar
    11    10    11   ar
    12    11    12   ar
    13     4     5   ar
    14     5    13    1
    15    13    14   ar
    16    14    15   ar
    17    15    16   ar
    18    16    17   ar
    19    17    18   ar
    20     5     6   ar
    21    20    23    1
    22    23    24    1
    23    24    25    1
    24     6     1   ar
    25    25    23    1
    26    12     7   ar
    27    18    13   ar
    28    21    22    1
@<TRIPOS>MOLECULE
*****
 25 28 0 0 0
SMALL
GASTEIGER

@<TRIPOS>ATOM
      1 C          63.4543   89.1113   12.9566 C.ar    1  UNL1        0.1535
      2 C          62.8546   89.8576   11.8019 C.ar    1  UNL1        0.1332
      3 N          62.2693   89.1040   10.6446 N.ar    1  UNL1       -0.2394
      4 C          62.2839   87.6041   10.6419 C.ar    1  UNL1        0.0991
      5 C          62.8836   86.8578   11.7966 C.ar    1  UNL1        0.1018
      6 N          63.4689   87.6114   12.9539 N.ar    1  UNL1       -0.2274
      7 C          61.6986   86.8504    9.4845 C.ar    1  UNL1        0.0222
      8 C          60.2196   86.8864    9.2369 C.ar    1  UNL1        0.0222
      9 C          59.6343   86.1327    8.0795 C.ar    1  UNL1        0.0989
     10 N          60.5281   85.3432    7.1697 N.ar    1  UNL1       -0.2423
     11 C          62.0072   85.3073    7.4173 C.ar    1  UNL1        0.0989
     12 C          62.5924   86.0609    8.5747 C.ar    1  UNL1        0.0222
     13 C          62.8982   85.3578   11.7939 C.ar    1  UNL1        0.0383
     14 C          63.4510   84.6153   10.6137 C.ar    1  UNL1        0.0047
     15 C          63.4655   83.1153   10.6110 C.ar    1  UNL1        0.0207
     16 C          62.9272   82.3580   11.7885 C.ar    1  UNL1        0.0989
     17 N          62.3744   83.1006   12.9687 N.ar    1  UNL1       -0.2423
     18 C          62.3599   84.6005   12.9714 C.ar    1  UNL1        0.1004
     19 O          65.1569   91.5318   12.4637 O.2     1  UNL1       -0.2747
     20 C          64.8909   91.0751   13.8676 C.2     1  UNL1        0.2267
     21 N          64.0396   89.8650   14.1140 N.am    1  UNL1       -0.2681
     22 H          63.8650   89.5653   15.0354 H       1  UNL1        0.1563
     23 C          65.4762   91.8288   15.0250 C.3     1  UNL1        0.0769
     24 C          65.3850   92.3054   16.4443 C.3     1  UNL1        0.0096
     25 C          66.5810   92.6575   15.6103 C.3     1  UNL1        0.0096
@<TRIPOS>BOND
     1    19    20    2
     2    20    21   am
     3    21     1    1
     4     1     2   ar
     5     2     3   ar
     6     3     4   ar
     7     4     7    1
     8     7     8   ar
     9     8     9   ar
    10     9    10   ar
    11    10    11   ar
    12    11    12   ar
    13     4     5   ar
    14     5    13    1
    15    13    14   ar
    16    14    15   ar
    17    15    16   ar
    18    16    17   ar
    19    17    18   ar
    20     5     6   ar
    21    20    23    1
    22    23    24    1
    23    24    25    1
    24     6     1   ar
    25    25    23    1
    26    12     7   ar
    27    18    13   ar
    28    21    22    1
@<TRIPOS>MOLECULE
*****
 25 28 0 0 0
SMALL
GASTEIGER

@<TRIPOS>ATOM
      1 C          63.1099   89.9556   12.8439 C.ar    1  UNL1        0.1535
      2 C          62.0337   90.8544   12.3110 C.ar    1  UNL1        0.1332
      3 N          61.1467   90.3834   11.1969 N.ar    1  UNL1       -0.2394
      4 C          61.3358   89.0135   10.6157 C.ar    1  UNL1        0.0991
      5 C          62.4120   88.1147   11.1486 C.ar    1  UNL1        0.1018
      6 N          63.2990   88.5858   12.2627 N.ar    1  UNL1       -0.2274
      7 C          60.4487   88.5425    9.5015 C.ar    1  UNL1        0.0222
      8 C          60.2206   89.4164    8.3040 C.ar    1  UNL1        0.0222
      9 C          59.3335   88.9454    7.1898 C.ar    1  UNL1        0.0989
     10 N          58.6745   87.6005    7.2733 N.ar    1  UNL1       -0.2423
     11 C          58.9027   86.7266    8.4710 C.ar    1  UNL1        0.0989
     12 C          59.7898   87.1976    9.5850 C.ar    1  UNL1        0.0222
     13 C          62.6011   86.7449   10.5673 C.ar    1  UNL1        0.0383
     14 C          62.8626   86.5827    9.0993 C.ar    1  UNL1        0.0047
     15 C          63.0517   85.2128    8.5181 C.ar    1  UNL1        0.0207
     16 C          62.9793   84.0053    9.4049 C.ar    1  UNL1        0.0989
     17 N          62.7178   84.1675   10.8729 N.ar    1  UNL1       -0.2423
     18 C          62.5287   85.5374   11.4542 C.ar    1  UNL1        0.1004
     19 O          65.2949   91.9344   12.2872 O.2     1  UNL1       -0.2747
     20 C          65.0895   91.4160   13.6797 C.2     1  UNL1        0.2267
     21 N          63.9970   90.4266   13.9581 N.am    1  UNL1       -0.2681
     22 H          63.8622   90.0863   14.8720 H       1  UNL1        0.1563
     23 C          65.9766   91.8870   14.7939 C.3     1  UNL1        0.0769
     24 C          67.3333   91.9676   15.4285 C.3     1  UNL1        0.0096
     25 C          66.1563   92.6221   16.0890 C.3     1  UNL1        0.0096
@<TRIPOS>BOND
     1    19    20    2
     2    20    21   am
     3    21     1    1
     4     1     2   ar
     5     2     3   ar
     6     3     4   ar
     7     4     7    1
     8     7     8   ar
     9     8     9   ar
    10     9    10   ar
    11    10    11   ar
    12    11    12   ar
    13     4     5   ar
    14     5    13    1
    15    13    14   ar
    16    14    15   ar
    17    15    16   ar
    18    16    17   ar
    19    17    18   ar
    20     5     6   ar
    21    20    23    1
    22    23    24    1
    23    24    25    1
    24     6     1   ar
    25    25    23    1
    26    12     7   ar
    27    18    13   ar
    28    21    22    1
@<TRIPOS>MOLECULE
*****
 25 28 0 0 0
SMALL
GASTEIGER

@<TRIPOS>ATOM
      1 C          63.5749   86.6617   15.5700 C.ar    1  UNL1        0.1535
      2 C          63.1083   85.6759   16.5998 C.ar    1  UNL1        0.1332
      3 N          62.7814   84.2686   16.1968 N.ar    1  UNL1       -0.2394
      4 C          62.9213   83.8470   14.7640 C.ar    1  UNL1        0.0991
      5 C          63.3879   84.8328   13.7343 C.ar    1  UNL1        0.1018
      6 N          63.7148   86.2401   14.1373 N.ar    1  UNL1       -0.2274
      7 C          62.5944   82.4395   14.3611 C.ar    1  UNL1        0.0222
      8 C          63.6972   81.4821   14.0187 C.ar    1  UNL1        0.0222
      9 C          63.3703   80.0747   13.6157 C.ar    1  UNL1        0.0989
     10 N          61.9407   79.6247   13.5551 N.ar    1  UNL1       -0.2423
     11 C          60.8379   80.5822   13.8975 C.ar    1  UNL1        0.0989
     12 C          61.1648   81.9896   14.3005 C.ar    1  UNL1        0.0222
     13 C          63.5278   84.4112   12.3016 C.ar    1  UNL1        0.0383
     14 C          62.6313   85.0031   11.2547 C.ar    1  UNL1        0.0047
     15 C          62.7711   84.5815    9.8220 C.ar    1  UNL1        0.0207
     16 C          63.8075   83.5681    9.4361 C.ar    1  UNL1        0.0989
     17 N          64.7039   82.9762   10.4830 N.ar    1  UNL1       -0.2423
     18 C          64.5641   83.3978   11.9157 C.ar    1  UNL1        0.1004
     19 O          63.8113   88.8033   13.4825 O.2     1  UNL1       -0.2747
     20 C          64.0200   89.1399   14.9293 C.2     1  UNL1        0.2267
     21 N          63.9018   88.0692   15.9730 N.am    1  UNL1       -0.2681
     22 H          64.0387   88.2901   16.9226 H       1  UNL1        0.1563
     23 C          64.3468   90.5474   15.3322 C.3     1  UNL1        0.0769
     24 C          64.1277   91.7238   16.2366 C.3     1  UNL1        0.0096
     25 C          65.1321   91.8086   15.1258 C.3     1  UNL1        0.0096
@<TRIPOS>BOND
     1    19    20    2
     2    20    21   am
     3    21     1    1
     4     1     2   ar
     5     2     3   ar
     6     3     4   ar
     7     4     7    1
     8     7     8   ar
     9     8     9   ar
    10     9    10   ar
    11    10    11   ar
    12    11    12   ar
    13     4     5   ar
    14     5    13    1
    15    13    14   ar
    16    14    15   ar
    17    15    16   ar
    18    16    17   ar
    19    17    18   ar
    20     5     6   ar
    21    20    23    1
    22    23    24    1
    23    24    25    1
    24     6     1   ar
    25    25    23    1
    26    12     7   ar
    27    18    13   ar
    28    21    22    1
@<TRIPOS>MOLECULE
*****
 25 28 0 0 0
SMALL
GASTEIGER

@<TRIPOS>ATOM
      1 C          64.2878   87.8777   14.1669 C.ar    1  UNL1        0.1535
      2 C          64.7272   86.6510   14.9097 C.ar    1  UNL1        0.1332
      3 N          64.3946   85.2902   14.3735 N.ar    1  UNL1       -0.2394
      4 C          63.6225   85.1562   13.0945 C.ar    1  UNL1        0.0991
      5 C          63.1830   86.3830   12.3517 C.ar    1  UNL1        0.1018
      6 N          63.5157   87.7438   12.8879 N.ar    1  UNL1       -0.2274
      7 C          63.2899   83.7953   12.5583 C.ar    1  UNL1        0.0222
      8 C          62.3315   82.9109   13.2993 C.ar    1  UNL1        0.0222
      9 C          61.9988   81.5500   12.7631 C.ar    1  UNL1        0.0989
     10 N          62.6246   81.0736   11.4858 N.ar    1  UNL1       -0.2423
     11 C          63.5831   81.9582   10.7448 C.ar    1  UNL1        0.0989
     12 C          63.9156   83.3189   11.2810 C.ar    1  UNL1        0.0222
     13 C          62.4109   86.2490   11.0726 C.ar    1  UNL1        0.0383
     14 C          63.0749   85.6858    9.8512 C.ar    1  UNL1        0.0047
     15 C          62.3028   85.5518    8.5722 C.ar    1  UNL1        0.0207
     16 C          60.8667   85.9810    8.5146 C.ar    1  UNL1        0.0989
     17 N          60.2027   86.5442    9.7360 N.ar    1  UNL1       -0.2423
     18 C          60.9748   86.6782   11.0150 C.ar    1  UNL1        0.1004
     19 O          62.4594   89.1988   16.1448 O.2     1  UNL1       -0.2747
     20 C          63.7063   89.8991   15.6921 C.2     1  UNL1        0.2267
     21 N          64.6204   89.2386   14.7031 N.am    1  UNL1       -0.2681
     22 H          65.4387   89.6983   14.4059 H       1  UNL1        0.1563
     23 C          64.0389   91.2600   16.2283 C.3     1  UNL1        0.0769
     24 C          63.6106   92.5347   16.8928 C.3     1  UNL1        0.0096
     25 C          65.0433   92.3423   16.4925 C.3     1  UNL1        0.0096
@<TRIPOS>BOND
     1    19    20    2
     2    20    21   am
     3    21     1    1
     4     1     2   ar
     5     2     3   ar
     6     3     4   ar
     7     4     7    1
     8     7     8   ar
     9     8     9   ar
    10     9    10   ar
    11    10    11   ar
    12    11    12   ar
    13     4     5   ar
    14     5    13    1
    15    13    14   ar
    16    14    15   ar
    17    15    16   ar
    18    16    17   ar
    19    17    18   ar
    20     5     6   ar
    21    20    23    1
    22    23    24    1
    23    24    25    1
    24     6     1   ar
    25    25    23    1
    26    12     7   ar
    27    18    13   ar
    28    21    22    1
