@<TRIPOS>MOLECULE
*****
 29 32 0 0 0
SMALL
GASTEIGER

@<TRIPOS>ATOM
      1 N          62.3581   86.2385   11.6870 N.pl3   1  UNL1       -0.2872
      2 C          62.6917   81.9950   13.1470 C.ar    1  UNL1        0.0715
      3 C          62.9997   82.3222   11.7160 C.ar    1  UNL1        0.0051
      4 C          62.8885   83.7367   11.2293 C.ar    1  UNL1        0.0148
      5 C          62.4693   84.8240   12.1737 C.ar    1  UNL1        0.0515
      6 C          62.1612   84.4968   13.6048 C.ar    1  UNL1        0.0148
      7 C          62.2724   83.0823   14.0914 C.ar    1  UNL1        0.0051
      8 F          62.9141   79.1660   14.1204 F       1  UNL1       -0.1659
      9 C          62.8029   80.5805   13.6337 C.3     1  UNL1        0.4186
     10 F          64.2982   80.6988   13.6358 F       1  UNL1       -0.1659
     11 F          61.3076   80.4623   13.6316 F       1  UNL1       -0.1659
     12 C          61.5682   86.5459   10.4495 C.ar    1  UNL1        0.0710
     13 C          61.9821   85.9620    9.1312 C.ar    1  UNL1        0.0180
     14 C          61.1921   86.2695    7.8936 C.ar    1  UNL1        0.0220
     15 C          59.9885   87.1609    7.9743 C.ar    1  UNL1        0.0990
     16 N          59.5746   87.7448    9.2926 N.ar    1  UNL1       -0.2410
     17 C          60.3645   87.4374   10.5301 C.ar    1  UNL1        0.1136
     18 C          63.0367   87.3455   12.4379 C.3     1  UNL1        0.0807
     19 C          63.8045   87.0417   13.6902 C.3     1  UNL1        0.0415
     20 C          64.4831   88.1487   14.4411 C.3     1  UNL1        0.0925
     21 N          64.3941   89.5596   13.9397 N.pl3   1  UNL1       -0.3074
     22 C          63.6263   89.8635   12.6875 C.3     1  UNL1        0.0925
     23 C          62.9476   88.7564   11.9365 C.3     1  UNL1        0.0415
     24 C          65.0728   90.6667   14.6907 C.ar    1  UNL1        0.0478
     25 C          64.3895   91.3070   15.8625 C.ar    1  UNL1        0.0145
     26 C          65.0682   92.4140   16.6133 C.ar    1  UNL1        0.0013
     27 C          66.4301   92.8807   16.1924 C.ar    1  UNL1        0.0001
     28 C          67.1134   92.2405   15.0206 C.ar    1  UNL1        0.0013
     29 C          66.4347   91.1334   14.2698 C.ar    1  UNL1        0.0145
@<TRIPOS>BOND
     1     8     9    1
     2     9    10    1
     3     9    11    1
     4     9     2    1
     5     2     3   ar
     6     3     4   ar
     7     4     5   ar
     8     5     1    1
     9     1    12    1
    10    12    13   ar
    11    13    14   ar
    12    14    15   ar
    13    15    16   ar
    14    16    17   ar
    15     1    18    1
    16    18    19    1
    17    19    20    1
    18    20    21    1
    19    21    24    1
    20    24    25   ar
    21    25    26   ar
    22    26    27   ar
    23    27    28   ar
    24    28    29   ar
    25    21    22    1
    26    22    23    1
    27     5     6   ar
    28     6     7   ar
    29     7     2   ar
    30    17    12   ar
    31    23    18    1
    32    29    24   ar
@<TRIPOS>MOLECULE
*****
 29 32 0 0 0
SMALL
GASTEIGER

@<TRIPOS>ATOM
      1 N          62.8547   85.0835   12.1426 N.pl3   1  UNL1       -0.2872
      2 C          62.1867   84.9360    7.6949 C.ar    1  UNL1        0.0715
      3 C          61.2197   85.6715    8.5746 C.ar    1  UNL1        0.0051
      4 C          61.4424   85.7207   10.0571 C.ar    1  UNL1        0.0148
      5 C          62.6321   85.0344   10.6600 C.ar    1  UNL1        0.0515
      6 C          63.5991   84.2989    9.7804 C.ar    1  UNL1        0.0148
      7 C          63.3764   84.2497    8.2978 C.ar    1  UNL1        0.0051
      8 F          61.7414   84.8377    4.7298 F       1  UNL1       -0.1659
      9 C          61.9641   84.8869    6.2123 C.3     1  UNL1        0.4186
     10 F          60.5170   85.2240    6.4185 F       1  UNL1       -0.1659
     11 F          63.4111   84.5498    6.0062 F       1  UNL1       -0.1659
     12 C          62.6211   83.8592   12.9771 C.ar    1  UNL1        0.0710
     13 C          62.5136   82.5142   12.3218 C.ar    1  UNL1        0.0180
     14 C          62.2799   81.2899   13.1564 C.ar    1  UNL1        0.0220
     15 C          62.1537   81.4106   14.6462 C.ar    1  UNL1        0.0990
     16 N          62.2612   82.7556   15.3015 N.ar    1  UNL1       -0.2410
     17 C          62.4949   83.9799   14.4670 C.ar    1  UNL1        0.1136
     18 C          63.3111   86.3570   12.7907 C.3     1  UNL1        0.0807
     19 C          63.0120   87.6769   12.1437 C.3     1  UNL1        0.0415
     20 C          63.4683   88.9503   12.7917 C.3     1  UNL1        0.0925
     21 N          64.2237   88.9040   14.0868 N.pl3   1  UNL1       -0.3074
     22 C          64.5228   87.5842   14.7338 C.3     1  UNL1        0.0925
     23 C          64.0665   86.3106   14.0857 C.3     1  UNL1        0.0415
     24 C          64.6801   90.1775   14.7348 C.ar    1  UNL1        0.0478
     25 C          63.9217   90.7394   15.9006 C.ar    1  UNL1        0.0145
     26 C          64.3781   92.0129   16.5486 C.ar    1  UNL1        0.0013
     27 C          65.5928   92.7245   16.0308 C.ar    1  UNL1        0.0001
     28 C          66.3511   92.1626   14.8650 C.ar    1  UNL1        0.0013
     29 C          65.8948   90.8891   14.2170 C.ar    1  UNL1        0.0145
@<TRIPOS>BOND
     1     8     9    1
     2     9    10    1
     3     9    11    1
     4     9     2    1
     5     2     3   ar
     6     3     4   ar
     7     4     5   ar
     8     5     1    1
     9     1    12    1
    10    12    13   ar
    11    13    14   ar
    12    14    15   ar
    13    15    16   ar
    14    16    17   ar
    15     1    18    1
    16    18    19    1
    17    19    20    1
    18    20    21    1
    19    21    24    1
    20    24    25   ar
    21    25    26   ar
    22    26    27   ar
    23    27    28   ar
    24    28    29   ar
    25    21    22    1
    26    22    23    1
    27     5     6   ar
    28     6     7   ar
    29     7     2   ar
    30    17    12   ar
    31    23    18    1
    32    29    24   ar
@<TRIPOS>MOLECULE
*****
 29 32 0 0 0
SMALL
GASTEIGER

@<TRIPOS>ATOM
      1 N          62.7940   86.1433   12.3322 N.pl3   1  UNL1       -0.2872
      2 C          60.2221   86.7972    8.6979 C.ar    1  UNL1        0.0715
      3 C          61.4341   85.9177    8.6107 C.ar    1  UNL1        0.0051
      4 C          62.2914   85.6998    9.8221 C.ar    1  UNL1        0.0148
      5 C          61.9367   86.3613   11.1208 C.ar    1  UNL1        0.0515
      6 C          60.7247   87.2407   11.2080 C.ar    1  UNL1        0.0148
      7 C          59.8674   87.4586    9.9966 C.ar    1  UNL1        0.0051
      8 F          58.5075   87.2330    6.2750 F       1  UNL1       -0.1659
      9 C          59.3648   87.0151    7.4865 C.3     1  UNL1        0.4186
     10 F          59.6002   85.5951    7.0644 F       1  UNL1       -0.1659
     11 F          59.1294   88.4351    7.9085 F       1  UNL1       -0.1659
     12 C          62.9706   84.7611   12.8871 C.ar    1  UNL1        0.0710
     13 C          63.9416   83.8141   12.2464 C.ar    1  UNL1        0.0180
     14 C          64.1183   82.4317   12.8014 C.ar    1  UNL1        0.0220
     15 C          63.3240   81.9964   13.9971 C.ar    1  UNL1        0.0990
     16 N          62.3531   82.9434   14.6378 N.ar    1  UNL1       -0.2410
     17 C          62.1764   84.3257   14.0828 C.ar    1  UNL1        0.1136
     18 C          63.4745   87.3077   12.9887 C.3     1  UNL1        0.0807
     19 C          63.3784   88.6744   12.3780 C.3     1  UNL1        0.0415
     20 C          64.0590   89.8388   13.0345 C.3     1  UNL1        0.0925
     21 N          64.8357   89.6365   14.3017 N.pl3   1  UNL1       -0.3074
     22 C          64.9319   88.2699   14.9124 C.3     1  UNL1        0.0925
     23 C          64.2513   87.1054   14.2559 C.3     1  UNL1        0.0415
     24 C          65.5163   90.8010   14.9582 C.ar    1  UNL1        0.0478
     25 C          64.7915   91.6057   15.9959 C.ar    1  UNL1        0.0145
     26 C          65.4721   92.7701   16.6523 C.ar    1  UNL1        0.0013
     27 C          66.8775   93.1297   16.2711 C.ar    1  UNL1        0.0001
     28 C          67.6024   92.3249   15.2334 C.ar    1  UNL1        0.0013
     29 C          66.9218   91.1606   14.5769 C.ar    1  UNL1        0.0145
@<TRIPOS>BOND
     1     8     9    1
     2     9    10    1
     3     9    11    1
     4     9     2    1
     5     2     3   ar
     6     3     4   ar
     7     4     5   ar
     8     5     1    1
     9     1    12    1
    10    12    13   ar
    11    13    14   ar
    12    14    15   ar
    13    15    16   ar
    14    16    17   ar
    15     1    18    1
    16    18    19    1
    17    19    20    1
    18    20    21    1
    19    21    24    1
    20    24    25   ar
    21    25    26   ar
    22    26    27   ar
    23    27    28   ar
    24    28    29   ar
    25    21    22    1
    26    22    23    1
    27     5     6   ar
    28     6     7   ar
    29     7     2   ar
    30    17    12   ar
    31    23    18    1
    32    29    24   ar
@<TRIPOS>MOLECULE
*****
 29 32 0 0 0
SMALL
GASTEIGER

@<TRIPOS>ATOM
      1 N          63.7553   89.0906   14.4937 N.pl3   1  UNL1       -0.2872
      2 C          66.5631   92.5463   15.1453 C.ar    1  UNL1        0.0715
      3 C          65.4270   92.3133   16.0967 C.ar    1  UNL1        0.0051
      4 C          64.4911   91.1614   15.8795 C.ar    1  UNL1        0.0148
      5 C          64.6912   90.2425   14.7109 C.ar    1  UNL1        0.0515
      6 C          65.8273   90.4755   13.7596 C.ar    1  UNL1        0.0148
      7 C          66.7632   91.6274   13.9768 C.ar    1  UNL1        0.0051
      8 F          68.4349   94.8502   15.5797 F       1  UNL1       -0.1659
      9 C          67.4990   93.6983   15.3625 C.3     1  UNL1        0.4186
     10 F          68.2360   92.9039   16.3997 F       1  UNL1       -0.1659
     11 F          66.7620   94.4926   14.3253 F       1  UNL1       -0.1659
     12 C          63.5905   88.0471   15.5586 C.ar    1  UNL1        0.0710
     13 C          62.9309   88.4000   16.8588 C.ar    1  UNL1        0.0180
     14 C          62.7661   87.3565   17.9237 C.ar    1  UNL1        0.0220
     15 C          63.2608   85.9601   17.6883 C.ar    1  UNL1        0.0990
     16 N          63.9204   85.6072   16.3882 N.ar    1  UNL1       -0.2410
     17 C          64.0852   86.6507   15.3233 C.ar    1  UNL1        0.1136
     18 C          62.9843   88.9822   13.2117 C.3     1  UNL1        0.0807
     19 C          62.1198   90.1209   12.7578 C.3     1  UNL1        0.0415
     20 C          61.3487   90.0125   11.4758 C.3     1  UNL1        0.0925
     21 N          61.4421   88.7653   10.6476 N.pl3   1  UNL1       -0.3074
     22 C          62.3065   87.6266   11.1014 C.3     1  UNL1        0.0925
     23 C          63.0777   87.7350   12.3835 C.3     1  UNL1        0.0415
     24 C          60.6710   88.6569    9.3655 C.ar    1  UNL1        0.0478
     25 C          60.1372   87.3273    8.9214 C.ar    1  UNL1        0.0145
     26 C          59.3662   87.2189    7.6394 C.ar    1  UNL1        0.0013
     27 C          59.1288   88.4402    6.8014 C.ar    1  UNL1        0.0001
     28 C          59.6626   89.7698    7.2454 C.ar    1  UNL1        0.0013
     29 C          60.4337   89.8781    8.5275 C.ar    1  UNL1        0.0145
@<TRIPOS>BOND
     1     8     9    1
     2     9    10    1
     3     9    11    1
     4     9     2    1
     5     2     3   ar
     6     3     4   ar
     7     4     5   ar
     8     5     1    1
     9     1    12    1
    10    12    13   ar
    11    13    14   ar
    12    14    15   ar
    13    15    16   ar
    14    16    17   ar
    15     1    18    1
    16    18    19    1
    17    19    20    1
    18    20    21    1
    19    21    24    1
    20    24    25   ar
    21    25    26   ar
    22    26    27   ar
    23    27    28   ar
    24    28    29   ar
    25    21    22    1
    26    22    23    1
    27     5     6   ar
    28     6     7   ar
    29     7     2   ar
    30    17    12   ar
    31    23    18    1
    32    29    24   ar
@<TRIPOS>MOLECULE
*****
 29 32 0 0 0
SMALL
GASTEIGER

@<TRIPOS>ATOM
      1 N          62.6180   88.5285   12.0662 N.pl3   1  UNL1       -0.2872
      2 C          65.5137   91.0700   14.3912 C.ar    1  UNL1        0.0715
      3 C          64.9909   91.5475   13.0689 C.ar    1  UNL1        0.0051
      4 C          64.0257   90.7003   12.2938 C.ar    1  UNL1        0.0148
      5 C          63.5833   89.3757   12.8412 C.ar    1  UNL1        0.0515
      6 C          64.1061   88.8983   14.1635 C.ar    1  UNL1        0.0148
      7 C          65.0713   89.7454   14.9386 C.ar    1  UNL1        0.0051
      8 F          67.4441   92.7644   15.9413 F       1  UNL1       -0.1659
      9 C          66.4789   91.9172   15.1662 C.3     1  UNL1        0.4186
     10 F          67.5826   91.5116   14.2350 F       1  UNL1       -0.1659
     11 F          65.3751   92.3228   16.0975 F       1  UNL1       -0.1659
     12 C          61.6191   89.1745   11.1526 C.ar    1  UNL1        0.0710
     13 C          61.6836   88.9258    9.6748 C.ar    1  UNL1        0.0180
     14 C          60.6845   89.5718    8.7612 C.ar    1  UNL1        0.0220
     15 C          59.6210   90.4666    9.3254 C.ar    1  UNL1        0.0990
     16 N          59.5566   90.7153   10.8032 N.ar    1  UNL1       -0.2410
     17 C          60.5555   90.0693   11.7168 C.ar    1  UNL1        0.1136
     18 C          62.6518   87.0354   12.2047 C.3     1  UNL1        0.0807
     19 C          63.4216   86.4034   13.3264 C.3     1  UNL1        0.0415
     20 C          63.4554   84.9102   13.4650 C.3     1  UNL1        0.0925
     21 N          62.7194   84.0489   12.4819 N.pl3   1  UNL1       -0.3074
     22 C          61.9496   84.6808   11.3603 C.3     1  UNL1        0.0925
     23 C          61.9158   86.1741   11.2217 C.3     1  UNL1        0.0415
     24 C          62.7532   82.5557   12.6205 C.ar    1  UNL1        0.0478
     25 C          62.9954   81.6959   11.4155 C.ar    1  UNL1        0.0145
     26 C          63.0292   80.2027   11.5542 C.ar    1  UNL1        0.0013
     27 C          62.8207   79.5693   12.8978 C.ar    1  UNL1        0.0001
     28 C          62.5785   80.4291   14.1028 C.ar    1  UNL1        0.0013
     29 C          62.5447   81.9223   13.9641 C.ar    1  UNL1        0.0145
@<TRIPOS>BOND
     1     8     9    1
     2     9    10    1
     3     9    11    1
     4     9     2    1
     5     2     3   ar
     6     3     4   ar
     7     4     5   ar
     8     5     1    1
     9     1    12    1
    10    12    13   ar
    11    13    14   ar
    12    14    15   ar
    13    15    16   ar
    14    16    17   ar
    15     1    18    1
    16    18    19    1
    17    19    20    1
    18    20    21    1
    19    21    24    1
    20    24    25   ar
    21    25    26   ar
    22    26    27   ar
    23    27    28   ar
    24    28    29   ar
    25    21    22    1
    26    22    23    1
    27     5     6   ar
    28     6     7   ar
    29     7     2   ar
    30    17    12   ar
    31    23    18    1
    32    29    24   ar
@<TRIPOS>MOLECULE
*****
 29 32 0 0 0
SMALL
GASTEIGER

@<TRIPOS>ATOM
      1 N          62.7962   88.5014   12.1486 N.pl3   1  UNL1       -0.2872
      2 C          63.1125   84.0441   12.6799 C.ar    1  UNL1        0.0715
      3 C          62.3880   84.6085   11.4940 C.ar    1  UNL1        0.0051
      4 C          62.2826   86.0942   11.3169 C.ar    1  UNL1        0.0148
      5 C          62.9016   87.0156   12.3257 C.ar    1  UNL1        0.0515
      6 C          63.6261   86.4512   13.5117 C.ar    1  UNL1        0.0148
      7 C          63.7315   84.9654   13.6888 C.ar    1  UNL1        0.0051
      8 F          63.3233   81.0725   13.0342 F       1  UNL1       -0.1659
      9 C          63.2179   82.5583   12.8571 C.3     1  UNL1        0.4186
     10 F          62.2988   82.3539   11.6894 F       1  UNL1       -0.1659
     11 F          64.1370   82.7627   14.0247 F       1  UNL1       -0.1659
     12 C          61.6843   89.0816   11.3258 C.ar    1  UNL1        0.0710
     13 C          60.5682   89.8287   11.9936 C.ar    1  UNL1        0.0180
     14 C          59.4563   90.4090   11.1707 C.ar    1  UNL1        0.0220
     15 C          59.4606   90.2420    9.6800 C.ar    1  UNL1        0.0990
     16 N          60.5767   89.4948    9.0122 N.ar    1  UNL1       -0.2410
     17 C          61.6886   88.9146    9.8350 C.ar    1  UNL1        0.1136
     18 C          63.8026   89.4069   12.7943 C.3     1  UNL1        0.0807
     19 C          64.3722   89.0585   14.1376 C.3     1  UNL1        0.0415
     20 C          65.3786   89.9641   14.7833 C.3     1  UNL1        0.0925
     21 N          65.8155   91.2181   14.0858 N.pl3   1  UNL1       -0.3074
     22 C          65.2461   91.5666   12.7426 C.3     1  UNL1        0.0925
     23 C          64.2396   90.6610   12.0968 C.3     1  UNL1        0.0415
     24 C          66.8220   92.1237   14.7316 C.ar    1  UNL1        0.0478
     25 C          66.7533   93.6047   14.5039 C.ar    1  UNL1        0.0145
     26 C          67.7598   94.5102   15.1497 C.ar    1  UNL1        0.0013
     27 C          68.8349   93.9347   16.0231 C.ar    1  UNL1        0.0001
     28 C          68.9036   92.4537   16.2507 C.ar    1  UNL1        0.0013
     29 C          67.8972   91.5482   15.6050 C.ar    1  UNL1        0.0145
@<TRIPOS>BOND
     1     8     9    1
     2     9    10    1
     3     9    11    1
     4     9     2    1
     5     2     3   ar
     6     3     4   ar
     7     4     5   ar
     8     5     1    1
     9     1    12    1
    10    12    13   ar
    11    13    14   ar
    12    14    15   ar
    13    15    16   ar
    14    16    17   ar
    15     1    18    1
    16    18    19    1
    17    19    20    1
    18    20    21    1
    19    21    24    1
    20    24    25   ar
    21    25    26   ar
    22    26    27   ar
    23    27    28   ar
    24    28    29   ar
    25    21    22    1
    26    22    23    1
    27     5     6   ar
    28     6     7   ar
    29     7     2   ar
    30    17    12   ar
    31    23    18    1
    32    29    24   ar
@<TRIPOS>MOLECULE
*****
 29 32 0 0 0
SMALL
GASTEIGER

@<TRIPOS>ATOM
      1 N          60.8465   94.1329   -2.5094 N.pl3   1  UNL1       -0.2872
      2 C          62.3438   92.4676    1.3938 C.ar    1  UNL1        0.0715
      3 C          61.0908   91.9209    0.7765 C.ar    1  UNL1        0.0051
      4 C          60.5917   92.4760   -0.5246 C.ar    1  UNL1        0.0148
      5 C          61.3456   93.5778   -1.2083 C.ar    1  UNL1        0.0515
      6 C          62.5986   94.1245   -0.5911 C.ar    1  UNL1        0.0148
      7 C          63.0977   93.5694    0.7100 C.ar    1  UNL1        0.0051
      8 F          63.3421   91.3573    3.9958 F       1  UNL1       -0.1659
      9 C          62.8430   91.9125    2.6948 C.3     1  UNL1        0.4186
     10 F          64.1983   91.7051    2.0864 F       1  UNL1       -0.1659
     11 F          61.4876   92.1198    3.3032 F       1  UNL1       -0.1659
     12 C          61.7992   94.3484   -3.6477 C.ar    1  UNL1        0.0710
     13 C          62.8377   93.3128   -3.9628 C.ar    1  UNL1        0.0180
     14 C          63.7905   93.5283   -5.1012 C.ar    1  UNL1        0.0220
     15 C          63.7048   94.7793   -5.9243 C.ar    1  UNL1        0.0990
     16 N          62.6664   95.8149   -5.6092 N.ar    1  UNL1       -0.2410
     17 C          61.7136   95.5994   -4.4709 C.ar    1  UNL1        0.1136
     18 C          59.3946   94.4726   -2.6721 C.3     1  UNL1        0.0807
     19 C          58.5237   93.6360   -3.5620 C.3     1  UNL1        0.0415
     20 C          57.0718   93.9757   -3.7248 C.3     1  UNL1        0.0925
     21 N          56.4907   95.1520   -2.9977 N.pl3   1  UNL1       -0.3074
     22 C          57.3614   95.9886   -2.1079 C.3     1  UNL1        0.0925
     23 C          58.8134   95.6489   -1.9451 C.3     1  UNL1        0.0415
     24 C          55.0387   95.4916   -3.1605 C.ar    1  UNL1        0.0478
     25 C          54.5158   95.9281   -4.4969 C.ar    1  UNL1        0.0145
     26 C          53.0639   96.2677   -4.6596 C.ar    1  UNL1        0.0013
     27 C          52.1348   96.1709   -3.4860 C.ar    1  UNL1        0.0001
     28 C          52.6577   95.7345   -2.1496 C.ar    1  UNL1        0.0013
     29 C          54.1096   95.3948   -1.9868 C.ar    1  UNL1        0.0145
@<TRIPOS>BOND
     1     8     9    1
     2     9    10    1
     3     9    11    1
     4     9     2    1
     5     2     3   ar
     6     3     4   ar
     7     4     5   ar
     8     5     1    1
     9     1    12    1
    10    12    13   ar
    11    13    14   ar
    12    14    15   ar
    13    15    16   ar
    14    16    17   ar
    15     1    18    1
    16    18    19    1
    17    19    20    1
    18    20    21    1
    19    21    24    1
    20    24    25   ar
    21    25    26   ar
    22    26    27   ar
    23    27    28   ar
    24    28    29   ar
    25    21    22    1
    26    22    23    1
    27     5     6   ar
    28     6     7   ar
    29     7     2   ar
    30    17    12   ar
    31    23    18    1
    32    29    24   ar
@<TRIPOS>MOLECULE
*****
 29 32 0 0 0
SMALL
GASTEIGER

@<TRIPOS>ATOM
      1 N          63.7679   88.5145   13.9180 N.pl3   1  UNL1       -0.2872
      2 C          65.7879   92.5347   13.8303 C.ar    1  UNL1        0.0715
      3 C          66.1048   91.5598   14.9253 C.ar    1  UNL1        0.0051
      4 C          65.4315   90.2197   14.9545 C.ar    1  UNL1        0.0148
      5 C          64.4412   89.8546   13.8888 C.ar    1  UNL1        0.0515
      6 C          64.1242   90.8295   12.7938 C.ar    1  UNL1        0.0148
      7 C          64.7976   92.1695   12.7646 C.ar    1  UNL1        0.0051
      8 F          67.1346   95.2148   13.7719 F       1  UNL1       -0.1659
      9 C          66.4612   93.8747   13.8011 C.3     1  UNL1        0.4186
     10 F          66.9776   93.6456   15.1907 F       1  UNL1       -0.1659
     11 F          65.9449   94.1039   12.4116 F       1  UNL1       -0.1659
     12 C          63.5624   87.8067   15.2244 C.ar    1  UNL1        0.0710
     13 C          62.9807   88.5445   16.3937 C.ar    1  UNL1        0.0180
     14 C          62.7752   87.8366   17.7002 C.ar    1  UNL1        0.0220
     15 C          63.1515   86.3910   17.8372 C.ar    1  UNL1        0.0990
     16 N          63.7331   85.6533   16.6679 N.ar    1  UNL1       -0.2410
     17 C          63.9386   86.3611   15.3615 C.ar    1  UNL1        0.1136
     18 C          63.3000   87.8823   12.6408 C.3     1  UNL1        0.0807
     19 C          63.2861   86.3885   12.5044 C.3     1  UNL1        0.0415
     20 C          62.8183   85.7562   11.2272 C.3     1  UNL1        0.0925
     21 N          62.3642   86.6177   10.0863 N.pl3   1  UNL1       -0.3074
     22 C          62.3780   88.1114   10.2226 C.3     1  UNL1        0.0925
     23 C          62.8459   88.7437   11.4998 C.3     1  UNL1        0.0415
     24 C          61.8963   85.9853    8.8090 C.ar    1  UNL1        0.0478
     25 C          62.8497   85.1787    7.9783 C.ar    1  UNL1        0.0145
     26 C          62.3818   84.5464    6.7011 C.ar    1  UNL1        0.0013
     27 C          60.9605   84.7208    6.2547 C.ar    1  UNL1        0.0001
     28 C          60.0070   85.5275    7.0854 C.ar    1  UNL1        0.0013
     29 C          60.4749   86.1598    8.3626 C.ar    1  UNL1        0.0145
@<TRIPOS>BOND
     1     8     9    1
     2     9    10    1
     3     9    11    1
     4     9     2    1
     5     2     3   ar
     6     3     4   ar
     7     4     5   ar
     8     5     1    1
     9     1    12    1
    10    12    13   ar
    11    13    14   ar
    12    14    15   ar
    13    15    16   ar
    14    16    17   ar
    15     1    18    1
    16    18    19    1
    17    19    20    1
    18    20    21    1
    19    21    24    1
    20    24    25   ar
    21    25    26   ar
    22    26    27   ar
    23    27    28   ar
    24    28    29   ar
    25    21    22    1
    26    22    23    1
    27     5     6   ar
    28     6     7   ar
    29     7     2   ar
    30    17    12   ar
    31    23    18    1
    32    29    24   ar
@<TRIPOS>MOLECULE
*****
 29 32 0 0 0
SMALL
GASTEIGER

@<TRIPOS>ATOM
      1 N          62.0410   93.8752   -1.7806 N.pl3   1  UNL1       -0.2872
      2 C          64.9116   93.8990   -5.2460 C.ar    1  UNL1        0.0715
      3 C          64.3571   95.1907   -4.7226 C.ar    1  UNL1        0.0051
      4 C          63.4002   95.1827   -3.5675 C.ar    1  UNL1        0.0148
      5 C          62.9979   93.8831   -2.9358 C.ar    1  UNL1        0.0515
      6 C          63.5524   92.5915   -3.4592 C.ar    1  UNL1        0.0148
      7 C          64.5092   92.5994   -4.6143 C.ar    1  UNL1        0.0051
      8 F          66.8253   93.9148   -7.5563 F       1  UNL1       -0.1659
      9 C          65.8684   93.9069   -6.4012 C.3     1  UNL1        0.4186
     10 F          65.5806   92.4559   -6.6495 F       1  UNL1       -0.1659
     11 F          66.1562   95.3579   -6.1528 F       1  UNL1       -0.1659
     12 C          62.5244   93.5089   -0.4088 C.ar    1  UNL1        0.0710
     13 C          61.6498   92.7013    0.5039 C.ar    1  UNL1        0.0180
     14 C          62.1334   92.3350    1.8758 C.ar    1  UNL1        0.0220
     15 C          63.4914   92.7762    2.3350 C.ar    1  UNL1        0.0990
     16 N          64.3660   93.5838    1.4224 N.ar    1  UNL1       -0.2410
     17 C          63.8826   93.9501    0.0505 C.ar    1  UNL1        0.1136
     18 C          60.6007   94.2336   -1.9973 C.3     1  UNL1        0.0807
     19 C          60.0164   95.4361   -1.3169 C.3     1  UNL1        0.0415
     20 C          58.5761   95.7945   -1.5336 C.3     1  UNL1        0.0925
     21 N          57.7200   94.9505   -2.4307 N.pl3   1  UNL1       -0.3074
     22 C          58.3042   93.7482   -3.1111 C.3     1  UNL1        0.0925
     23 C          59.7446   93.3897   -2.8944 C.3     1  UNL1        0.0415
     24 C          56.2796   95.3090   -2.6474 C.ar    1  UNL1        0.0478
     25 C          55.7802   95.6045   -4.0305 C.ar    1  UNL1        0.0145
     26 C          54.3399   95.9630   -4.2472 C.ar    1  UNL1        0.0013
     27 C          53.3990   96.0259   -3.0806 C.ar    1  UNL1        0.0001
     28 C          53.8985   95.7304   -1.6975 C.ar    1  UNL1        0.0013
     29 C          55.3388   95.3720   -1.4808 C.ar    1  UNL1        0.0145
@<TRIPOS>BOND
     1     8     9    1
     2     9    10    1
     3     9    11    1
     4     9     2    1
     5     2     3   ar
     6     3     4   ar
     7     4     5   ar
     8     5     1    1
     9     1    12    1
    10    12    13   ar
    11    13    14   ar
    12    14    15   ar
    13    15    16   ar
    14    16    17   ar
    15     1    18    1
    16    18    19    1
    17    19    20    1
    18    20    21    1
    19    21    24    1
    20    24    25   ar
    21    25    26   ar
    22    26    27   ar
    23    27    28   ar
    24    28    29   ar
    25    21    22    1
    26    22    23    1
    27     5     6   ar
    28     6     7   ar
    29     7     2   ar
    30    17    12   ar
    31    23    18    1
    32    29    24   ar
