@<TRIPOS>MOLECULE
*****
 40 44 0 0 0
SMALL
GASTEIGER

@<TRIPOS>ATOM
      1 C          62.3782   89.9310   13.3401 C.3     1  UNL1        0.1139
      2 C          65.3414   92.3610   10.9812 C.ar    1  UNL1        0.0001
      3 C          65.5805   92.0946   12.4379 C.ar    1  UNL1       -0.0003
      4 C          64.5928   91.2846   13.2242 C.ar    1  UNL1       -0.0026
      5 C          63.3659   90.7410   12.5538 C.ar    1  UNL1       -0.0029
      6 C          63.1268   91.0074   11.0972 C.ar    1  UNL1       -0.0026
      7 C          64.1145   91.8174   10.3108 C.ar    1  UNL1       -0.0003
      8 C          66.9417   95.3461    8.9129 C.ar    1  UNL1        0.1387
      9 C          68.3046   94.7910    8.6223 C.ar    1  UNL1        0.0369
     10 C          68.6798   93.4258    9.1181 C.ar    1  UNL1        0.0031
     11 C          67.6919   92.6159    9.9044 C.ar    1  UNL1        0.0002
     12 C          66.3291   93.1710   10.1949 C.ar    1  UNL1        0.0030
     13 C          65.9540   94.5361    9.6991 C.ar    1  UNL1        0.0369
     14 C          65.7193   96.8560    7.1878 C.3     1  UNL1        0.2525
     15 O          66.5666   96.7112    8.4171 O.3     1  UNL1       -0.4714
     16 N          61.1793   89.3418   12.6579 N.am    1  UNL1       -0.2729
     17 C          59.8709   90.0750   12.6749 C.3     1  UNL1        0.1152
     18 C          61.2889   88.0192   11.9586 C.2     1  UNL1        0.2465
     19 O          60.0901   87.4300   11.2763 O.2     1  UNL1       -0.2730
     20 C          62.5974   87.2860   11.9416 C.3     1  UNL1        0.1835
     21 N          62.7708   86.0815   11.0645 N.am    1  UNL1       -0.2439
     22 C          62.8316   86.2413    9.5743 C.2     1  UNL1        0.2744
     23 O          62.7189   87.6056    8.9611 O.2     1  UNL1       -0.2705
     24 C          63.0050   85.0368    8.6974 C.3     1  UNL1        0.2900
     25 O          63.1177   83.6726    9.3106 O.3     1  UNL1       -0.4643
     26 C          63.0570   83.5128   10.8008 C.ar    1  UNL1        0.1537
     27 C          63.1697   82.1485   11.4140 C.ar    1  UNL1        0.0504
     28 C          63.1090   81.9887   12.9042 C.ar    1  UNL1        0.0713
     29 CL         63.2217   80.6244   13.5174 Cl      1  UNL1       -0.0813
     30 C          62.9355   83.1932   13.7813 C.ar    1  UNL1        0.0696
     31 CL         62.8748   83.0334   15.2714 Cl      1  UNL1       -0.0813
     32 C          62.8228   84.5575   13.1680 C.ar    1  UNL1        0.0302
     33 C          62.8835   84.7172   11.6777 C.ar    1  UNL1        0.0894
     34 C          62.5893   89.7103   14.8087 C.3     1  UNL1        0.0968
     35 N          63.1666   88.4148   15.2970 N.3     1  UNL1       -0.2667
     36 C          64.2902   87.7640   14.5460 C.3     1  UNL1        0.1047
     37 C          64.8675   86.4685   15.0343 C.3     1  UNL1        0.1595
     38 O          64.3211   85.8238   16.2737 O.3     1  UNL1       -0.3508
     39 C          63.1975   86.4746   17.0246 C.3     1  UNL1        0.1595
     40 C          62.6202   87.7701   16.5363 C.3     1  UNL1        0.1047
@<TRIPOS>BOND
     1    14    15    1
     2    15     8    1
     3     8     9   ar
     4     9    10   ar
     5    10    11   ar
     6    11    12   ar
     7    12     2    1
     8     2     3   ar
     9     3     4   ar
    10     4     5   ar
    11     5     1    1
    12     1    34    1
    13    34    35    1
    14    35    36    1
    15    36    37    1
    16    37    38    1
    17    38    39    1
    18    39    40    1
    19     1    16    1
    20    16    17    1
    21    16    18   am
    22    18    19    2
    23    18    20    1
    24    20    21    1
    25    21    22   am
    26    22    23    2
    27    22    24    1
    28    24    25    1
    29    25    26    1
    30    26    27   ar
    31    27    28   ar
    32    28    29    1
    33    28    30   ar
    34    30    31    1
    35    30    32   ar
    36    32    33   ar
    37     5     6   ar
    38     6     7   ar
    39    12    13   ar
    40    13     8   ar
    41     7     2   ar
    42    40    35    1
    43    33    21    1
    44    33    26   ar
@<TRIPOS>MOLECULE
*****
 40 44 0 0 0
SMALL
GASTEIGER

@<TRIPOS>ATOM
      1 C          63.8144   88.3143   14.6464 C.3     1  UNL1        0.1139
      2 C          61.6825   87.9576   10.6995 C.ar    1  UNL1        0.0001
      3 C          61.7633   89.2864   11.3910 C.ar    1  UNL1       -0.0003
      4 C          62.4739   89.4053   12.7066 C.ar    1  UNL1       -0.0026
      5 C          63.1038   88.1955   13.3308 C.ar    1  UNL1       -0.0029
      6 C          63.0230   86.8668   12.6394 C.ar    1  UNL1       -0.0026
      7 C          62.3124   86.7478   11.3238 C.ar    1  UNL1       -0.0003
      8 C          60.2367   86.4059    7.3452 C.ar    1  UNL1        0.1387
      9 C          59.5507   87.6010    6.7526 C.ar    1  UNL1        0.0369
     10 C          59.5753   88.9150    7.4757 C.ar    1  UNL1        0.0031
     11 C          60.2860   89.0339    8.7914 C.ar    1  UNL1        0.0002
     12 C          60.9719   87.8388    9.3839 C.ar    1  UNL1        0.0030
     13 C          60.9473   86.5248    8.6608 C.ar    1  UNL1        0.0369
     14 C          61.4971   84.4475    6.1936 C.3     1  UNL1        0.2525
     15 O          60.2121   85.0919    6.6221 O.3     1  UNL1       -0.4714
     16 N          63.4782   89.4380   15.5816 N.am    1  UNL1       -0.2729
     17 C          62.2340   89.3719   16.4168 C.3     1  UNL1        0.1152
     18 C          64.3864   90.6277   15.6815 C.2     1  UNL1        0.2465
     19 O          64.0502   91.7513   16.6166 O.2     1  UNL1       -0.2730
     20 C          65.6305   90.6938   14.8463 C.3     1  UNL1        0.1835
     21 N          66.2798   92.0178   14.5712 N.am    1  UNL1       -0.2439
     22 C          67.1969   92.6291   15.5886 C.2     1  UNL1        0.2744
     23 O          67.4648   91.9166   16.8811 O.2     1  UNL1       -0.2705
     24 C          67.8461   93.9530   15.3135 C.3     1  UNL1        0.2900
     25 O          67.5782   94.6656   14.0210 O.3     1  UNL1       -0.4643
     26 C          66.6611   94.0542   13.0036 C.ar    1  UNL1        0.1537
     27 C          66.3932   94.7668   11.7112 C.ar    1  UNL1        0.0504
     28 C          65.4761   94.1554   10.6938 C.ar    1  UNL1        0.0713
     29 CL         65.2082   94.8680    9.4013 Cl      1  UNL1       -0.0813
     30 C          64.8268   92.8314   10.9689 C.ar    1  UNL1        0.0696
     31 CL         63.9097   92.2201    9.9515 Cl      1  UNL1       -0.0813
     32 C          65.0947   92.1189   12.2614 C.ar    1  UNL1        0.0302
     33 C          66.0119   92.7303   13.2788 C.ar    1  UNL1        0.0894
     34 C          64.8612   87.3096   15.0270 C.3     1  UNL1        0.0968
     35 N          64.5043   85.8561   15.1272 N.3     1  UNL1       -0.2667
     36 C          65.3035   84.8339   14.3744 C.3     1  UNL1        0.1047
     37 C          64.9466   83.3805   14.4747 C.3     1  UNL1        0.1595
     38 O          63.7906   82.9491   15.3277 O.3     1  UNL1       -0.3508
     39 C          62.9915   83.9713   16.0805 C.3     1  UNL1        0.1595
     40 C          63.3483   85.4247   15.9802 C.3     1  UNL1        0.1047
@<TRIPOS>BOND
     1    14    15    1
     2    15     8    1
     3     8     9   ar
     4     9    10   ar
     5    10    11   ar
     6    11    12   ar
     7    12     2    1
     8     2     3   ar
     9     3     4   ar
    10     4     5   ar
    11     5     1    1
    12     1    34    1
    13    34    35    1
    14    35    36    1
    15    36    37    1
    16    37    38    1
    17    38    39    1
    18    39    40    1
    19     1    16    1
    20    16    17    1
    21    16    18   am
    22    18    19    2
    23    18    20    1
    24    20    21    1
    25    21    22   am
    26    22    23    2
    27    22    24    1
    28    24    25    1
    29    25    26    1
    30    26    27   ar
    31    27    28   ar
    32    28    29    1
    33    28    30   ar
    34    30    31    1
    35    30    32   ar
    36    32    33   ar
    37     5     6   ar
    38     6     7   ar
    39    12    13   ar
    40    13     8   ar
    41     7     2   ar
    42    40    35    1
    43    33    21    1
    44    33    26   ar
@<TRIPOS>MOLECULE
*****
 40 44 0 0 0
SMALL
GASTEIGER

@<TRIPOS>ATOM
      1 C          63.6813   88.3558   14.4637 C.3     1  UNL1        0.1139
      2 C          61.4278   88.1589   10.5737 C.ar    1  UNL1        0.0001
      3 C          61.5283   89.4578   11.3174 C.ar    1  UNL1       -0.0003
      4 C          62.2794   89.5234   12.6140 C.ar    1  UNL1       -0.0026
      5 C          62.9301   88.2902   13.1671 C.ar    1  UNL1       -0.0029
      6 C          62.8297   86.9914   12.4235 C.ar    1  UNL1       -0.0026
      7 C          62.0785   86.9258   11.1267 C.ar    1  UNL1       -0.0003
      8 C          59.6863   89.2787    7.1880 C.ar    1  UNL1        0.1387
      9 C          59.1742   87.9621    6.6836 C.ar    1  UNL1        0.0369
     10 C          59.4134   86.7111    7.4760 C.ar    1  UNL1        0.0031
     11 C          60.1646   86.7767    8.7727 C.ar    1  UNL1        0.0002
     12 C          60.6766   88.0933    9.2770 C.ar    1  UNL1        0.0030
     13 C          60.4375   89.3443    8.4846 C.ar    1  UNL1        0.0369
     14 C          58.2231   90.6512    5.5371 C.3     1  UNL1        0.2525
     15 O          59.4472   90.5297    6.3956 O.3     1  UNL1       -0.4714
     16 N          63.3656   89.4321   15.4598 N.am    1  UNL1       -0.2729
     17 C          62.1066   89.3568   16.2716 C.3     1  UNL1        0.1152
     18 C          64.3091   90.5836   15.6440 C.2     1  UNL1        0.2465
     19 O          63.9934   91.6599   16.6400 O.2     1  UNL1       -0.2730
     20 C          65.5681   90.6589   14.8321 C.3     1  UNL1        0.1835
     21 N          66.2167   91.9869   14.5752 N.am    1  UNL1       -0.2439
     22 C          67.1141   92.5962   15.6112 C.2     1  UNL1        0.2744
     23 O          67.3632   91.8776   16.9041 O.2     1  UNL1       -0.2705
     24 C          67.7626   93.9241   15.3543 C.3     1  UNL1        0.2900
     25 O          67.5136   94.6428   14.0614 O.3     1  UNL1       -0.4643
     26 C          66.6161   94.0335   13.0254 C.ar    1  UNL1        0.1537
     27 C          66.3670   94.7522   11.7326 C.ar    1  UNL1        0.0504
     28 C          65.4696   94.1429   10.6966 C.ar    1  UNL1        0.0713
     29 CL         65.2205   94.8615    9.4037 Cl      1  UNL1       -0.0813
     30 C          64.8210   92.8149   10.9535 C.ar    1  UNL1        0.0696
     31 CL         63.9236   92.2056    9.9176 Cl      1  UNL1       -0.0813
     32 C          65.0701   92.0962   12.2464 C.ar    1  UNL1        0.0302
     33 C          65.9676   92.7056   13.2824 C.ar    1  UNL1        0.0894
     34 C          64.7482   87.3452   14.7644 C.3     1  UNL1        0.0968
     35 N          64.3826   85.9030   14.9556 N.3     1  UNL1       -0.2667
     36 C          63.2689   85.5288   15.8882 C.3     1  UNL1        0.1047
     37 C          62.9033   84.0867   16.0793 C.3     1  UNL1        0.1595
     38 O          63.6515   83.0187   15.3379 O.3     1  UNL1       -0.3508
     39 C          64.7652   83.3929   14.4053 C.3     1  UNL1        0.1595
     40 C          65.1308   84.8350   14.2142 C.3     1  UNL1        0.1047
@<TRIPOS>BOND
     1    14    15    1
     2    15     8    1
     3     8     9   ar
     4     9    10   ar
     5    10    11   ar
     6    11    12   ar
     7    12     2    1
     8     2     3   ar
     9     3     4   ar
    10     4     5   ar
    11     5     1    1
    12     1    34    1
    13    34    35    1
    14    35    36    1
    15    36    37    1
    16    37    38    1
    17    38    39    1
    18    39    40    1
    19     1    16    1
    20    16    17    1
    21    16    18   am
    22    18    19    2
    23    18    20    1
    24    20    21    1
    25    21    22   am
    26    22    23    2
    27    22    24    1
    28    24    25    1
    29    25    26    1
    30    26    27   ar
    31    27    28   ar
    32    28    29    1
    33    28    30   ar
    34    30    31    1
    35    30    32   ar
    36    32    33   ar
    37     5     6   ar
    38     6     7   ar
    39    12    13   ar
    40    13     8   ar
    41     7     2   ar
    42    40    35    1
    43    33    21    1
    44    33    26   ar
@<TRIPOS>MOLECULE
*****
 40 44 0 0 0
SMALL
GASTEIGER

@<TRIPOS>ATOM
      1 C          61.0612   93.3415    1.7581 C.3     1  UNL1        0.1139
      2 C          60.1991   90.7234    5.3151 C.ar    1  UNL1        0.0001
      3 C          59.1156   91.5857    4.7382 C.ar    1  UNL1       -0.0003
      4 C          59.4030   92.4583    3.5526 C.ar    1  UNL1       -0.0026
      5 C          60.7738   92.4688    2.9437 C.ar    1  UNL1       -0.0029
      6 C          61.8572   91.6066    3.5205 C.ar    1  UNL1       -0.0026
      7 C          61.5699   90.7339    4.7062 C.ar    1  UNL1       -0.0003
      8 C          60.0927   89.3886    9.0509 C.ar    1  UNL1        0.1387
      9 C          59.3369   88.1053    8.8720 C.ar    1  UNL1        0.0369
     10 C          58.8685   87.6947    7.5075 C.ar    1  UNL1        0.0031
     11 C          59.1560   88.5675    6.3218 C.ar    1  UNL1        0.0002
     12 C          59.9117   89.8507    6.5007 C.ar    1  UNL1        0.0030
     13 C          60.3800   90.2613    7.8653 C.ar    1  UNL1        0.0369
     14 C          59.6221   90.5022   11.3506 C.3     1  UNL1        0.2525
     15 O          60.5610   89.7992   10.4155 O.3     1  UNL1       -0.4714
     16 N          60.1713   94.5100    1.4536 N.am    1  UNL1       -0.2729
     17 C          60.1822   95.7141    2.3480 C.3     1  UNL1        0.1152
     18 C          59.2705   94.4744    0.2547 C.2     1  UNL1        0.2465
     19 O          58.3806   95.6429   -0.0498 O.2     1  UNL1       -0.2730
     20 C          59.2596   93.2703   -0.6397 C.3     1  UNL1        0.1835
     21 N          58.5763   93.3329   -1.9737 N.am    1  UNL1       -0.2439
     22 C          57.1369   92.9301   -2.0987 C.2     1  UNL1        0.2744
     23 O          56.3807   92.4645   -0.8898 O.2     1  UNL1       -0.2705
     24 C          56.4537   92.9927   -3.4326 C.3     1  UNL1        0.2900
     25 O          57.2100   93.4583   -4.6414 O.3     1  UNL1       -0.4643
     26 C          58.6494   93.8612   -4.5164 C.ar    1  UNL1        0.1537
     27 C          59.4056   94.3268   -5.7253 C.ar    1  UNL1        0.0504
     28 C          60.8451   94.7297   -5.6002 C.ar    1  UNL1        0.0713
     29 CL         61.6013   95.1952   -6.8091 Cl      1  UNL1       -0.0813
     30 C          61.5283   94.6670   -4.2663 C.ar    1  UNL1        0.0696
     31 CL         62.9678   95.0699   -4.1413 Cl      1  UNL1       -0.0813
     32 C          60.7721   94.2014   -3.0575 C.ar    1  UNL1        0.0302
     33 C          59.3326   93.7985   -3.1825 C.ar    1  UNL1        0.0894
     34 C          62.2385   93.0457    0.8768 C.3     1  UNL1        0.0968
     35 N          63.3050   94.0814    0.6774 N.3     1  UNL1       -0.2667
     36 C          63.8428   94.3492   -0.6972 C.3     1  UNL1        0.1047
     37 C          64.9093   95.3849   -0.8966 C.3     1  UNL1        0.1595
     38 O          65.4380   96.1529    0.2784 O.3     1  UNL1       -0.3508
     39 C          64.9002   95.8852    1.6528 C.3     1  UNL1        0.1595
     40 C          63.8337   94.8494    1.8523 C.3     1  UNL1        0.1047
@<TRIPOS>BOND
     1    14    15    1
     2    15     8    1
     3     8     9   ar
     4     9    10   ar
     5    10    11   ar
     6    11    12   ar
     7    12     2    1
     8     2     3   ar
     9     3     4   ar
    10     4     5   ar
    11     5     1    1
    12     1    34    1
    13    34    35    1
    14    35    36    1
    15    36    37    1
    16    37    38    1
    17    38    39    1
    18    39    40    1
    19     1    16    1
    20    16    17    1
    21    16    18   am
    22    18    19    2
    23    18    20    1
    24    20    21    1
    25    21    22   am
    26    22    23    2
    27    22    24    1
    28    24    25    1
    29    25    26    1
    30    26    27   ar
    31    27    28   ar
    32    28    29    1
    33    28    30   ar
    34    30    31    1
    35    30    32   ar
    36    32    33   ar
    37     5     6   ar
    38     6     7   ar
    39    12    13   ar
    40    13     8   ar
    41     7     2   ar
    42    40    35    1
    43    33    21    1
    44    33    26   ar
@<TRIPOS>MOLECULE
*****
 40 44 0 0 0
SMALL
GASTEIGER

@<TRIPOS>ATOM
      1 C          63.7131   90.1029   13.4817 C.3     1  UNL1        0.1139
      2 C          63.5695   85.6243   13.0679 C.ar    1  UNL1        0.0001
      3 C          64.2306   86.2464   14.2621 C.ar    1  UNL1       -0.0003
      4 C          64.2785   87.7393   14.4000 C.ar    1  UNL1       -0.0026
      5 C          63.6652   88.6101   13.3438 C.ar    1  UNL1       -0.0029
      6 C          63.0041   87.9881   12.1497 C.ar    1  UNL1       -0.0026
      7 C          62.9563   86.4952   12.0117 C.ar    1  UNL1       -0.0003
      8 C          62.5993   81.8289   13.7028 C.ar    1  UNL1        0.1387
      9 C          63.4259   81.1457   12.6540 C.ar    1  UNL1        0.0369
     10 C          64.3005   81.9554   11.7432 C.ar    1  UNL1        0.0031
     11 C          64.3483   83.4484   11.8812 C.ar    1  UNL1        0.0002
     12 C          63.5216   84.1315   12.9299 C.ar    1  UNL1        0.0030
     13 C          62.6471   83.3218   13.8408 C.ar    1  UNL1        0.0369
     14 C          60.3480   80.6198   14.1719 C.3     1  UNL1        0.2525
     15 O          61.7248   81.0192   14.6137 O.3     1  UNL1       -0.4714
     16 N          64.2212   90.7231   14.7495 N.am    1  UNL1       -0.2729
     17 C          64.0362   90.0137   16.0581 C.3     1  UNL1        0.1152
     18 C          64.9143   92.0528   14.7086 C.2     1  UNL1        0.2465
     19 O          65.4224   92.6730   15.9764 O.2     1  UNL1       -0.2730
     20 C          65.0993   92.7622   13.4000 C.3     1  UNL1        0.1835
     21 N          66.3749   92.5933   12.6290 N.am    1  UNL1       -0.2439
     22 C          67.3929   91.5859   13.0749 C.2     1  UNL1        0.2744
     23 O          67.1354   90.7475   14.2917 O.2     1  UNL1       -0.2705
     24 C          68.6684   91.4170   12.3038 C.3     1  UNL1        0.2900
     25 O          68.9259   92.2554   11.0870 O.3     1  UNL1       -0.4643
     26 C          67.9079   93.2627   10.6411 C.ar    1  UNL1        0.1537
     27 C          68.1653   94.1011    9.4243 C.ar    1  UNL1        0.0504
     28 C          67.1473   95.1085    8.9784 C.ar    1  UNL1        0.0713
     29 CL         67.4048   95.9469    7.7615 Cl      1  UNL1       -0.0813
     30 C          65.8717   95.2775    9.7494 C.ar    1  UNL1        0.0696
     31 CL         64.8537   96.2848    9.3036 Cl      1  UNL1       -0.0813
     32 C          65.6143   94.4391   10.9663 C.ar    1  UNL1        0.0302
     33 C          66.6324   93.4317   11.4121 C.ar    1  UNL1        0.0894
     34 C          63.2528   90.9757   12.3519 C.3     1  UNL1        0.0968
     35 N          62.1046   90.5426   11.4894 N.3     1  UNL1       -0.2667
     36 C          60.7163   90.4975   12.0559 C.3     1  UNL1        0.1047
     37 C          59.5680   90.0644   11.1934 C.3     1  UNL1        0.1595
     38 O          59.8080   89.6764    9.7644 O.3     1  UNL1       -0.3508
     39 C          61.1961   89.7215    9.1980 C.3     1  UNL1        0.1595
     40 C          62.3444   90.1546   10.0605 C.3     1  UNL1        0.1047
@<TRIPOS>BOND
     1    14    15    1
     2    15     8    1
     3     8     9   ar
     4     9    10   ar
     5    10    11   ar
     6    11    12   ar
     7    12     2    1
     8     2     3   ar
     9     3     4   ar
    10     4     5   ar
    11     5     1    1
    12     1    34    1
    13    34    35    1
    14    35    36    1
    15    36    37    1
    16    37    38    1
    17    38    39    1
    18    39    40    1
    19     1    16    1
    20    16    17    1
    21    16    18   am
    22    18    19    2
    23    18    20    1
    24    20    21    1
    25    21    22   am
    26    22    23    2
    27    22    24    1
    28    24    25    1
    29    25    26    1
    30    26    27   ar
    31    27    28   ar
    32    28    29    1
    33    28    30   ar
    34    30    31    1
    35    30    32   ar
    36    32    33   ar
    37     5     6   ar
    38     6     7   ar
    39    12    13   ar
    40    13     8   ar
    41     7     2   ar
    42    40    35    1
    43    33    21    1
    44    33    26   ar
@<TRIPOS>MOLECULE
*****
 40 44 0 0 0
SMALL
GASTEIGER

@<TRIPOS>ATOM
      1 C          64.5267   90.6713   13.4507 C.3     1  UNL1        0.1139
      2 C          61.7959   88.9668   10.3063 C.ar    1  UNL1        0.0001
      3 C          62.4787   88.0541   11.2814 C.ar    1  UNL1       -0.0003
      4 C          63.3890   88.6223   12.3295 C.ar    1  UNL1       -0.0026
      5 C          63.6164   90.1031   12.4026 C.ar    1  UNL1       -0.0029
      6 C          62.9337   91.0158   11.4276 C.ar    1  UNL1       -0.0026
      7 C          62.0234   90.4477   10.3794 C.ar    1  UNL1       -0.0003
      8 C          59.2706   88.7454    7.2528 C.ar    1  UNL1        0.1387
      9 C          59.0651   87.2623    7.1619 C.ar    1  UNL1        0.0369
     10 C          59.7699   86.3474    8.1190 C.ar    1  UNL1        0.0031
     11 C          60.6802   86.9156    9.1672 C.ar    1  UNL1        0.0002
     12 C          60.8856   88.3987    9.2582 C.ar    1  UNL1        0.0030
     13 C          60.1808   89.3136    8.3010 C.ar    1  UNL1        0.0369
     14 C          59.3453   90.6849    5.5257 C.3     1  UNL1        0.2525
     15 O          58.5658   89.6603    6.2956 O.3     1  UNL1       -0.4714
     16 N          64.0612   90.7733   14.8730 N.am    1  UNL1       -0.2729
     17 C          63.8354   92.1201   15.4935 C.3     1  UNL1        0.1152
     18 C          63.8216   89.5283   15.6748 C.2     1  UNL1        0.2465
     19 O          63.3561   89.6303   17.0971 O.2     1  UNL1       -0.2730
     20 C          64.0474   88.1815   15.0543 C.3     1  UNL1        0.1835
     21 N          63.4533   86.9565   15.6840 N.am    1  UNL1       -0.2439
     22 C          63.0420   86.9789   17.1263 C.2     1  UNL1        0.2744
     23 O          63.2247   88.2263   17.9390 O.2     1  UNL1       -0.2705
     24 C          62.4480   85.7539   17.7558 C.3     1  UNL1        0.2900
     25 O          62.2652   84.5065   16.9431 O.3     1  UNL1       -0.4643
     26 C          62.6766   84.4840   15.5008 C.ar    1  UNL1        0.1537
     27 C          62.4938   83.2366   14.6881 C.ar    1  UNL1        0.0504
     28 C          62.9052   83.2142   13.2458 C.ar    1  UNL1        0.0713
     29 CL         62.7224   81.9667   12.4331 Cl      1  UNL1       -0.0813
     30 C          63.4992   84.4392   12.6162 C.ar    1  UNL1        0.0696
     31 CL         63.9106   84.4168   11.1739 Cl      1  UNL1       -0.0813
     32 C          63.6820   85.6867   13.4289 C.ar    1  UNL1        0.0302
     33 C          63.2706   85.7090   14.8713 C.ar    1  UNL1        0.0894
     34 C          65.9025   91.1375   13.0766 C.3     1  UNL1        0.0968
     35 N          66.0775   92.4025   12.2897 N.3     1  UNL1       -0.2667
     36 C          66.1512   93.7225   12.9984 C.3     1  UNL1        0.1047
     37 C          66.3262   94.9875   12.2116 C.3     1  UNL1        0.1595
     38 O          66.4276   94.9325   10.7159 O.3     1  UNL1       -0.3508
     39 C          66.3539   93.6125   10.0073 C.3     1  UNL1        0.1595
     40 C          66.1789   92.3475   10.7942 C.3     1  UNL1        0.1047
@<TRIPOS>BOND
     1    14    15    1
     2    15     8    1
     3     8     9   ar
     4     9    10   ar
     5    10    11   ar
     6    11    12   ar
     7    12     2    1
     8     2     3   ar
     9     3     4   ar
    10     4     5   ar
    11     5     1    1
    12     1    34    1
    13    34    35    1
    14    35    36    1
    15    36    37    1
    16    37    38    1
    17    38    39    1
    18    39    40    1
    19     1    16    1
    20    16    17    1
    21    16    18   am
    22    18    19    2
    23    18    20    1
    24    20    21    1
    25    21    22   am
    26    22    23    2
    27    22    24    1
    28    24    25    1
    29    25    26    1
    30    26    27   ar
    31    27    28   ar
    32    28    29    1
    33    28    30   ar
    34    30    31    1
    35    30    32   ar
    36    32    33   ar
    37     5     6   ar
    38     6     7   ar
    39    12    13   ar
    40    13     8   ar
    41     7     2   ar
    42    40    35    1
    43    33    21    1
    44    33    26   ar
@<TRIPOS>MOLECULE
*****
 40 44 0 0 0
SMALL
GASTEIGER

@<TRIPOS>ATOM
      1 C          63.6400   89.2347   13.1515 C.3     1  UNL1        0.1139
      2 C          65.3240   93.0453   11.4506 C.ar    1  UNL1        0.0001
      3 C          65.8185   92.5298   12.7696 C.ar    1  UNL1       -0.0003
      4 C          65.2572   91.2596   13.3366 C.ar    1  UNL1       -0.0026
      5 C          64.2013   90.5049   12.5845 C.ar    1  UNL1       -0.0029
      6 C          63.7068   91.0203   11.2656 C.ar    1  UNL1       -0.0026
      7 C          64.2682   92.2905   10.6985 C.ar    1  UNL1       -0.0003
      8 C          66.6250   95.7309    8.8344 C.ar    1  UNL1        0.1387
      9 C          67.0081   96.8559    9.7497 C.ar    1  UNL1        0.0369
     10 C          66.8298   96.7106   11.2320 C.ar    1  UNL1        0.0031
     11 C          66.2684   95.4404   11.7989 C.ar    1  UNL1        0.0002
     12 C          65.8854   94.3155   10.8836 C.ar    1  UNL1        0.0030
     13 C          66.0636   94.4608    9.4013 C.ar    1  UNL1        0.0369
     14 C          65.7308   96.5246    6.5277 C.3     1  UNL1        0.2525
     15 O          66.8032   95.8762    7.3521 O.3     1  UNL1       -0.4714
     16 N          63.6196   89.0206   14.6360 N.am    1  UNL1       -0.2729
     17 C          63.3468   90.1732   15.5563 C.3     1  UNL1        0.1152
     18 C          63.8721   87.6538   15.2002 C.2     1  UNL1        0.2465
     19 O          63.8517   87.4398   16.6847 O.2     1  UNL1       -0.2730
     20 C          64.1450   86.5012   14.2799 C.3     1  UNL1        0.1835
     21 N          63.5280   85.1614   14.5526 N.am    1  UNL1       -0.2439
     22 C          63.0171   84.8362   15.9249 C.2     1  UNL1        0.2744
     23 O          63.1231   85.8509   17.0245 O.2     1  UNL1       -0.2705
     24 C          62.4001   83.4965   16.1975 C.3     1  UNL1        0.2900
     25 O          62.2941   82.4819   15.0978 O.3     1  UNL1       -0.4643
     26 C          62.8050   82.8070   13.7255 C.ar    1  UNL1        0.1537
     27 C          62.6989   81.7924   12.6258 C.ar    1  UNL1        0.0504
     28 C          63.2098   82.1176   11.2535 C.ar    1  UNL1        0.0713
     29 CL         63.1037   81.1029   10.1538 Cl      1  UNL1       -0.0813
     30 C          63.8268   83.4574   10.9808 C.ar    1  UNL1        0.0696
     31 CL         64.3377   83.7825    9.6086 Cl      1  UNL1       -0.0813
     32 C          63.9328   84.4720   12.0805 C.ar    1  UNL1        0.0302
     33 C          63.4219   84.1468   13.4529 C.ar    1  UNL1        0.0894
     34 C          63.0990   88.1785   12.2339 C.3     1  UNL1        0.0968
     35 N          61.9514   88.4943   11.3210 N.3     1  UNL1       -0.2667
     36 C          60.8154   89.3429   11.8103 C.3     1  UNL1        0.1047
     37 C          59.6678   89.6587   10.8973 C.3     1  UNL1        0.1595
     38 O          59.6563   89.1258    9.4952 O.3     1  UNL1       -0.3508
     39 C          60.7923   88.2772    9.0060 C.3     1  UNL1        0.1595
     40 C          61.9399   87.9614    9.9189 C.3     1  UNL1        0.1047
@<TRIPOS>BOND
     1    14    15    1
     2    15     8    1
     3     8     9   ar
     4     9    10   ar
     5    10    11   ar
     6    11    12   ar
     7    12     2    1
     8     2     3   ar
     9     3     4   ar
    10     4     5   ar
    11     5     1    1
    12     1    34    1
    13    34    35    1
    14    35    36    1
    15    36    37    1
    16    37    38    1
    17    38    39    1
    18    39    40    1
    19     1    16    1
    20    16    17    1
    21    16    18   am
    22    18    19    2
    23    18    20    1
    24    20    21    1
    25    21    22   am
    26    22    23    2
    27    22    24    1
    28    24    25    1
    29    25    26    1
    30    26    27   ar
    31    27    28   ar
    32    28    29    1
    33    28    30   ar
    34    30    31    1
    35    30    32   ar
    36    32    33   ar
    37     5     6   ar
    38     6     7   ar
    39    12    13   ar
    40    13     8   ar
    41     7     2   ar
    42    40    35    1
    43    33    21    1
    44    33    26   ar
@<TRIPOS>MOLECULE
*****
 40 44 0 0 0
SMALL
GASTEIGER

@<TRIPOS>ATOM
      1 C          64.5999   90.7106   13.4217 C.3     1  UNL1        0.1139
      2 C          61.9369   89.0240   10.2101 C.ar    1  UNL1        0.0001
      3 C          62.4351   88.1380   11.3133 C.ar    1  UNL1       -0.0003
      4 C          63.3228   88.7002   12.3838 C.ar    1  UNL1       -0.0026
      5 C          63.7123   90.1484   12.3512 C.ar    1  UNL1       -0.0029
      6 C          63.2141   91.0343   11.2481 C.ar    1  UNL1       -0.0026
      7 C          62.3264   90.4721   10.1775 C.ar    1  UNL1       -0.0003
      8 C          60.2837   86.4576    7.6744 C.ar    1  UNL1        0.1387
      9 C          59.2739   87.3374    6.9987 C.ar    1  UNL1        0.0369
     10 C          59.1519   88.7793    7.3935 C.ar    1  UNL1        0.0031
     11 C          60.0397   89.3415    8.4640 C.ar    1  UNL1        0.0002
     12 C          61.0493   88.4618    9.1397 C.ar    1  UNL1        0.0030
     13 C          61.1713   87.0198    8.7449 C.ar    1  UNL1        0.0369
     14 C          61.4730   84.5897    6.3155 C.3     1  UNL1        0.2525
     15 O          60.4057   85.0156    7.2796 O.3     1  UNL1       -0.4714
     16 N          64.0979   90.8211   14.8308 N.am    1  UNL1       -0.2729
     17 C          63.8757   92.1718   15.4441 C.3     1  UNL1        0.1152
     18 C          63.8181   89.5808   15.6268 C.2     1  UNL1        0.2465
     19 O          63.3161   89.6913   17.0359 O.2     1  UNL1       -0.2730
     20 C          64.0403   88.2301   15.0135 C.3     1  UNL1        0.1835
     21 N          63.4608   87.0076   15.6615 N.am    1  UNL1       -0.2439
     22 C          63.0648   87.0417   17.1079 C.2     1  UNL1        0.2744
     23 O          63.2484   88.2982   17.9063 O.2     1  UNL1       -0.2705
     24 C          62.4853   85.8193   17.7558 C.3     1  UNL1        0.2900
     25 O          62.3018   84.5628   16.9573 O.3     1  UNL1       -0.4643
     26 C          62.6977   84.5287   15.5110 C.ar    1  UNL1        0.1537
     27 C          62.5142   83.2722   14.7125 C.ar    1  UNL1        0.0504
     28 C          62.9101   83.2381   13.2662 C.ar    1  UNL1        0.0713
     29 CL         62.7266   81.9816   12.4677 Cl      1  UNL1       -0.0813
     30 C          63.4896   84.4606   12.6182 C.ar    1  UNL1        0.0696
     31 CL         63.8856   84.4265   11.1718 Cl      1  UNL1       -0.0813
     32 C          63.6732   85.7171   13.4166 C.ar    1  UNL1        0.0302
     33 C          63.2772   85.7511   14.8631 C.ar    1  UNL1        0.0894
     34 C          65.9897   91.1623   13.0830 C.3     1  UNL1        0.0968
     35 N          66.1972   92.4109   12.2780 N.3     1  UNL1       -0.2667
     36 C          66.4934   92.3167   10.8106 C.3     1  UNL1        0.1047
     37 C          66.7009   93.5653   10.0056 C.3     1  UNL1        0.1595
     38 O          66.6121   94.9081   10.6682 O.3     1  UNL1       -0.3508
     39 C          66.3159   95.0023   12.1356 C.3     1  UNL1        0.1595
     40 C          66.1084   93.7537   12.9405 C.3     1  UNL1        0.1047
@<TRIPOS>BOND
     1    14    15    1
     2    15     8    1
     3     8     9   ar
     4     9    10   ar
     5    10    11   ar
     6    11    12   ar
     7    12     2    1
     8     2     3   ar
     9     3     4   ar
    10     4     5   ar
    11     5     1    1
    12     1    34    1
    13    34    35    1
    14    35    36    1
    15    36    37    1
    16    37    38    1
    17    38    39    1
    18    39    40    1
    19     1    16    1
    20    16    17    1
    21    16    18   am
    22    18    19    2
    23    18    20    1
    24    20    21    1
    25    21    22   am
    26    22    23    2
    27    22    24    1
    28    24    25    1
    29    25    26    1
    30    26    27   ar
    31    27    28   ar
    32    28    29    1
    33    28    30   ar
    34    30    31    1
    35    30    32   ar
    36    32    33   ar
    37     5     6   ar
    38     6     7   ar
    39    12    13   ar
    40    13     8   ar
    41     7     2   ar
    42    40    35    1
    43    33    21    1
    44    33    26   ar
@<TRIPOS>MOLECULE
*****
 40 44 0 0 0
SMALL
GASTEIGER

@<TRIPOS>ATOM
      1 C          61.0199   93.5187    1.7334 C.3     1  UNL1        0.1139
      2 C          60.1991   90.8346    5.2508 C.ar    1  UNL1        0.0001
      3 C          61.5563   90.8400    4.6120 C.ar    1  UNL1       -0.0003
      4 C          61.8299   91.7347    3.4396 C.ar    1  UNL1       -0.0026
      5 C          60.7463   92.6240    2.9058 C.ar    1  UNL1       -0.0029
      6 C          59.3891   92.6186    3.5444 C.ar    1  UNL1       -0.0026
      7 C          59.1155   91.7239    4.7170 C.ar    1  UNL1       -0.0003
      8 C          60.1215   89.4385    8.9649 C.ar    1  UNL1        0.1387
      9 C          59.3782   88.1505    8.7681 C.ar    1  UNL1        0.0369
     10 C          58.9085   87.7573    7.3989 C.ar    1  UNL1        0.0031
     11 C          59.1822   88.6520    6.2264 C.ar    1  UNL1        0.0002
     12 C          59.9255   89.9400    6.4232 C.ar    1  UNL1        0.0030
     13 C          60.3951   90.3332    7.7924 C.ar    1  UNL1        0.0369
     14 C          59.6176   90.3897   11.3295 C.3     1  UNL1        0.2525
     15 O          60.5912   89.8318   10.3341 O.3     1  UNL1       -0.4714
     16 N          60.1601   94.7240    1.4929 N.am    1  UNL1       -0.2729
     17 C          60.1131   95.8265    2.5089 C.3     1  UNL1        0.1152
     18 C          59.3472   94.8268    0.2365 C.2     1  UNL1        0.2465
     19 O          58.4873   96.0322   -0.0040 O.2     1  UNL1       -0.2730
     20 C          59.3941   93.7243   -0.7795 C.3     1  UNL1        0.1835
     21 N          59.3384   94.0499   -2.2428 N.am    1  UNL1       -0.2439
     22 C          60.2603   95.0847   -2.8165 C.2     1  UNL1        0.2744
     23 O          61.2381   95.7939   -1.9271 O.2     1  UNL1       -0.2705
     24 C          60.2045   95.4102   -4.2797 C.3     1  UNL1        0.2900
     25 O          59.2267   94.7010   -5.1691 O.3     1  UNL1       -0.4643
     26 C          58.3048   93.6663   -4.5953 C.ar    1  UNL1        0.1537
     27 C          57.3270   92.9571   -5.4847 C.ar    1  UNL1        0.0504
     28 C          56.4051   91.9223   -4.9109 C.ar    1  UNL1        0.0713
     29 CL         55.4273   91.2131   -5.8003 Cl      1  UNL1       -0.0813
     30 C          56.4608   91.5967   -3.4477 C.ar    1  UNL1        0.0696
     31 CL         55.5389   90.5620   -2.8739 Cl      1  UNL1       -0.0813
     32 C          57.4386   92.3059   -2.5583 C.ar    1  UNL1        0.0302
     33 C          58.3606   93.3407   -3.1321 C.ar    1  UNL1        0.0894
     34 C          62.1534   93.2080    0.8013 C.3     1  UNL1        0.0968
     35 N          63.2612   94.2012    0.6104 N.3     1  UNL1       -0.2667
     36 C          63.8659   94.3984   -0.7481 C.3     1  UNL1        0.1047
     37 C          64.9737   95.3916   -0.9390 C.3     1  UNL1        0.1595
     38 O          65.4767   96.1876    0.2287 O.3     1  UNL1       -0.3508
     39 C          64.8720   95.9903    1.5872 C.3     1  UNL1        0.1595
     40 C          63.7643   94.9971    1.7780 C.3     1  UNL1        0.1047
@<TRIPOS>BOND
     1    14    15    1
     2    15     8    1
     3     8     9   ar
     4     9    10   ar
     5    10    11   ar
     6    11    12   ar
     7    12     2    1
     8     2     3   ar
     9     3     4   ar
    10     4     5   ar
    11     5     1    1
    12     1    34    1
    13    34    35    1
    14    35    36    1
    15    36    37    1
    16    37    38    1
    17    38    39    1
    18    39    40    1
    19     1    16    1
    20    16    17    1
    21    16    18   am
    22    18    19    2
    23    18    20    1
    24    20    21    1
    25    21    22   am
    26    22    23    2
    27    22    24    1
    28    24    25    1
    29    25    26    1
    30    26    27   ar
    31    27    28   ar
    32    28    29    1
    33    28    30   ar
    34    30    31    1
    35    30    32   ar
    36    32    33   ar
    37     5     6   ar
    38     6     7   ar
    39    12    13   ar
    40    13     8   ar
    41     7     2   ar
    42    40    35    1
    43    33    21    1
    44    33    26   ar
