@<TRIPOS>MOLECULE
*****
 31 34 0 0 0
SMALL
GASTEIGER

@<TRIPOS>ATOM
      1 N          63.2174   89.0528   12.6080 N.pl3   1  UNL1       -0.2872
      2 C          63.9538   83.3809   14.4210 C.2     1  UNL1        0.2562
      3 O          64.7520   83.0860   15.6564 O.2     1  UNL1       -0.2693
      4 N          63.7697   84.7989   13.9678 N.am    1  UNL1       -0.2755
      5 C          64.3837   85.9220   14.7499 C.3     1  UNL1        0.0954
      6 C          64.1996   87.3399   14.2966 C.3     1  UNL1        0.0416
      7 C          63.4015   87.6348   13.0613 C.3     1  UNL1        0.0807
      8 C          62.7875   86.5117   12.2792 C.3     1  UNL1        0.0416
      9 C          62.9716   85.0938   12.7325 C.3     1  UNL1        0.0954
     10 C          64.6456   82.5928   11.3307 C.3     1  UNL1        0.0528
     11 C          63.6578   81.8955   12.2185 C.ar    1  UNL1        0.0704
     12 N          62.8145   80.7136   11.8416 N.ar    1  UNL1       -0.2404
     13 C          61.9754   80.3455   13.0293 C.ar    1  UNL1        0.1342
     14 S          62.3001   81.2998   14.1400 S.2     1  UNL1       -0.0603
     15 C          63.3398   82.2578   13.6390 C.ar    1  UNL1        0.0979
     16 C          64.1323   90.1274   13.1161 C.ar    1  UNL1        0.0515
     17 C          64.6717   90.0542   14.5139 C.ar    1  UNL1        0.0148
     18 C          65.5867   91.1288   15.0219 C.ar    1  UNL1        0.0051
     19 C          65.9622   92.2766   14.1323 C.ar    1  UNL1        0.0715
     20 C          65.4228   92.3498   12.7345 C.ar    1  UNL1        0.0051
     21 C          64.5079   91.2752   12.2264 C.ar    1  UNL1        0.0148
     22 C          66.8772   93.3511   14.6404 C.3     1  UNL1        0.4186
     23 F          67.7921   94.4257   15.1485 F       1  UNL1       -0.1659
     24 F          66.3850   94.2772   13.5680 F       1  UNL1       -0.1659
     25 F          67.3693   92.4250   15.7128 F       1  UNL1       -0.1659
     26 C          62.1183   89.3962   11.6467 C.ar    1  UNL1        0.0710
     27 C          62.2918   89.1259   10.1815 C.ar    1  UNL1        0.0180
     28 C          61.1928   89.4693    9.2202 C.ar    1  UNL1        0.0220
     29 C          59.9202   90.0830    9.7240 C.ar    1  UNL1        0.0990
     30 N          59.7467   90.3534   11.1893 N.ar    1  UNL1       -0.2410
     31 C          60.8457   90.0100   12.1506 C.ar    1  UNL1        0.1136
@<TRIPOS>BOND
     1    10    11    1
     2    11    12   ar
     3    12    13   ar
     4    13    14   ar
     5    14    15   ar
     6    15     2    1
     7     2     3    2
     8     2     4   am
     9     4     5    1
    10     5     6    1
    11     6     7    1
    12     7     1    1
    13     1    16    1
    14    16    17   ar
    15    17    18   ar
    16    18    19   ar
    17    19    22    1
    18    22    23    1
    19    22    24    1
    20    22    25    1
    21    19    20   ar
    22    20    21   ar
    23     1    26    1
    24    26    27   ar
    25    27    28   ar
    26    28    29   ar
    27    29    30   ar
    28    30    31   ar
    29     7     8    1
    30     8     9    1
    31    15    11   ar
    32     9     4    1
    33    21    16   ar
    34    31    26   ar
@<TRIPOS>MOLECULE
*****
 31 34 0 0 0
SMALL
GASTEIGER

@<TRIPOS>ATOM
      1 N          62.9109   89.1174   11.6081 N.pl3   1  UNL1       -0.2872
      2 C          66.2355   94.0712   12.2472 C.2     1  UNL1        0.2562
      3 O          66.8084   94.4220   13.5883 O.2     1  UNL1       -0.2693
      4 N          65.4043   92.8327   12.0874 N.am    1  UNL1       -0.2755
      5 C          65.1461   91.9452   13.2688 C.3     1  UNL1        0.0954
      6 C          64.3150   90.7068   13.1090 C.3     1  UNL1        0.0416
      7 C          63.7421   90.3559   11.7678 C.3     1  UNL1        0.0807
      8 C          64.0003   91.2434   10.5865 C.3     1  UNL1        0.0416
      9 C          64.8314   92.4818   10.7463 C.3     1  UNL1        0.0954
     10 C          68.0886   93.3353    9.6638 C.3     1  UNL1        0.0528
     11 C          67.3454   94.6205    9.8784 C.ar    1  UNL1        0.0704
     12 N          67.3236   95.7930    8.9432 N.ar    1  UNL1       -0.2404
     13 C          66.4583   96.8560    9.5527 C.ar    1  UNL1        0.1342
     14 S          65.9454   96.3403   10.8646 S.2     1  UNL1       -0.0603
     15 C          66.4936   94.9587   11.0659 C.ar    1  UNL1        0.0979
     16 C          63.2178   87.8977   12.4254 C.ar    1  UNL1        0.0515
     17 C          62.7686   86.5464   11.9539 C.ar    1  UNL1        0.0148
     18 C          63.0754   85.3266   12.7712 C.ar    1  UNL1        0.0051
     19 C          63.8314   85.4582   14.0601 C.ar    1  UNL1        0.0715
     20 C          64.2806   86.8094   14.5316 C.ar    1  UNL1        0.0051
     21 C          63.9738   88.0292   13.7143 C.ar    1  UNL1        0.0148
     22 C          64.1383   84.2384   14.8774 C.3     1  UNL1        0.4186
     23 F          64.4452   83.0186   15.6947 F       1  UNL1       -0.1659
     24 F          62.6896   84.1228   15.2487 F       1  UNL1       -0.1659
     25 F          65.5869   84.3540   14.5061 F       1  UNL1       -0.1659
     26 C          61.7730   89.0988   10.6310 C.ar    1  UNL1        0.0710
     27 C          61.6723   87.9973    9.6178 C.ar    1  UNL1        0.0180
     28 C          60.5344   87.9787    8.6408 C.ar    1  UNL1        0.0220
     29 C          59.4971   89.0615    8.6768 C.ar    1  UNL1        0.0990
     30 N          59.5977   90.1631    9.6900 N.ar    1  UNL1       -0.2410
     31 C          60.7356   90.1818   10.6671 C.ar    1  UNL1        0.1136
@<TRIPOS>BOND
     1    10    11    1
     2    11    12   ar
     3    12    13   ar
     4    13    14   ar
     5    14    15   ar
     6    15     2    1
     7     2     3    2
     8     2     4   am
     9     4     5    1
    10     5     6    1
    11     6     7    1
    12     7     1    1
    13     1    16    1
    14    16    17   ar
    15    17    18   ar
    16    18    19   ar
    17    19    22    1
    18    22    23    1
    19    22    24    1
    20    22    25    1
    21    19    20   ar
    22    20    21   ar
    23     1    26    1
    24    26    27   ar
    25    27    28   ar
    26    28    29   ar
    27    29    30   ar
    28    30    31   ar
    29     7     8    1
    30     8     9    1
    31    15    11   ar
    32     9     4    1
    33    21    16   ar
    34    31    26   ar
@<TRIPOS>MOLECULE
*****
 31 34 0 0 0
SMALL
GASTEIGER

@<TRIPOS>ATOM
      1 N          62.0496   89.0757   11.5441 N.pl3   1  UNL1       -0.2872
      2 C          66.4052   93.1829   11.9440 C.2     1  UNL1        0.2562
      3 O          67.1665   93.3463   13.2261 O.2     1  UNL1       -0.2693
      4 N          65.3162   92.1561   11.8441 N.am    1  UNL1       -0.2755
      5 C          64.9887   91.2927   13.0261 C.3     1  UNL1        0.0954
      6 C          63.8998   90.2660   12.9261 C.3     1  UNL1        0.0416
      7 C          63.1385   90.1026   11.6441 C.3     1  UNL1        0.0807
      8 C          63.4660   90.9659   10.4620 C.3     1  UNL1        0.0416
      9 C          64.5549   91.9927   10.5620 C.3     1  UNL1        0.0954
     10 C          68.3221   92.3548    9.4362 C.3     1  UNL1        0.0528
     11 C          67.6138   93.6657    9.6092 C.ar    1  UNL1        0.0704
     12 N          67.6623   94.8260    8.6599 N.ar    1  UNL1       -0.2404
     13 C          66.8111   95.9238    9.2260 C.ar    1  UNL1        0.1342
     14 S          66.2366   95.4419   10.5251 S.2     1  UNL1       -0.0603
     15 C          66.7327   94.0463   10.7620 C.ar    1  UNL1        0.0979
     16 C          62.3924   87.6450   11.2517 C.ar    1  UNL1        0.0515
     17 C          62.8971   86.7554   12.3489 C.ar    1  UNL1        0.0148
     18 C          63.2399   85.3246   12.0564 C.ar    1  UNL1        0.0051
     19 C          63.0780   84.7836   10.6668 C.ar    1  UNL1        0.0715
     20 C          62.5732   85.6732    9.5696 C.ar    1  UNL1        0.0051
     21 C          62.2304   87.1039    9.8620 C.ar    1  UNL1        0.0148
     22 C          63.4208   83.3529   10.3743 C.3     1  UNL1        0.4186
     23 F          63.7636   81.9221   10.0819 F       1  UNL1       -0.1659
     24 F          63.7465   83.7206    8.9571 F       1  UNL1       -0.1659
     25 F          63.0950   82.9852   11.7916 F       1  UNL1       -0.1659
     26 C          60.6178   89.4797   11.7366 C.ar    1  UNL1        0.0710
     27 C          59.6649   88.5547   12.4339 C.ar    1  UNL1        0.0180
     28 C          58.2332   88.9587   12.6264 C.ar    1  UNL1        0.0220
     29 C          57.7544   90.2875   12.1216 C.ar    1  UNL1        0.0990
     30 N          58.7074   91.2126   11.4243 N.ar    1  UNL1       -0.2410
     31 C          60.1391   90.8086   11.2318 C.ar    1  UNL1        0.1136
@<TRIPOS>BOND
     1    10    11    1
     2    11    12   ar
     3    12    13   ar
     4    13    14   ar
     5    14    15   ar
     6    15     2    1
     7     2     3    2
     8     2     4   am
     9     4     5    1
    10     5     6    1
    11     6     7    1
    12     7     1    1
    13     1    16    1
    14    16    17   ar
    15    17    18   ar
    16    18    19   ar
    17    19    22    1
    18    22    23    1
    19    22    24    1
    20    22    25    1
    21    19    20   ar
    22    20    21   ar
    23     1    26    1
    24    26    27   ar
    25    27    28   ar
    26    28    29   ar
    27    29    30   ar
    28    30    31   ar
    29     7     8    1
    30     8     9    1
    31    15    11   ar
    32     9     4    1
    33    21    16   ar
    34    31    26   ar
@<TRIPOS>MOLECULE
*****
 31 34 0 0 0
SMALL
GASTEIGER

@<TRIPOS>ATOM
      1 N          62.0823   86.8086   10.8559 N.pl3   1  UNL1       -0.2872
      2 C          64.7403   91.9086   12.5662 C.2     1  UNL1        0.2562
      3 O          64.7660   93.0881   11.6399 O.2     1  UNL1       -0.2693
      4 N          64.0757   90.6336   12.1386 N.am    1  UNL1       -0.2755
      5 C          63.4370   90.5381   10.7847 C.3     1  UNL1        0.0954
      6 C          62.7726   89.2632   10.3572 C.3     1  UNL1        0.0416
      7 C          62.7468   88.0836   11.2835 C.3     1  UNL1        0.0807
      8 C          63.3855   88.1790   12.6373 C.3     1  UNL1        0.0416
      9 C          64.0499   89.4540   13.0649 C.3     1  UNL1        0.0954
     10 C          67.9447   91.8709   13.1824 C.3     1  UNL1        0.0528
     11 C          66.8519   91.9867   14.2033 C.ar    1  UNL1        0.0704
     12 N          67.0401   92.1055   15.6866 N.ar    1  UNL1       -0.2404
     13 C          65.6835   92.1963   16.3202 C.ar    1  UNL1        0.1342
     14 S          64.6568   92.1335   15.2284 S.2     1  UNL1       -0.0603
     15 C          65.3789   92.0040   13.9200 C.ar    1  UNL1        0.0979
     16 C          62.4623   85.5106   11.5045 C.ar    1  UNL1        0.0515
     17 C          62.1991   85.2970   12.9657 C.ar    1  UNL1        0.0148
     18 C          62.5792   83.9989   13.6143 C.ar    1  UNL1        0.0051
     19 C          63.2225   82.9146   12.8018 C.ar    1  UNL1        0.0715
     20 C          63.4857   83.1282   11.3406 C.ar    1  UNL1        0.0051
     21 C          63.1056   84.4261   10.6919 C.ar    1  UNL1        0.0148
     22 C          63.6025   81.6166   13.4504 C.3     1  UNL1        0.4186
     23 F          63.9826   80.3186   14.0991 F       1  UNL1       -0.1659
     24 F          63.1138   80.8708   12.2442 F       1  UNL1       -0.1659
     25 F          64.0912   82.3624   14.6566 F       1  UNL1       -0.1659
     26 C          61.0377   86.8316    9.7796 C.ar    1  UNL1        0.0710
     27 C          61.2183   86.0045    8.5413 C.ar    1  UNL1        0.0180
     28 C          60.1737   86.0276    7.4651 C.ar    1  UNL1        0.0220
     29 C          58.9486   86.8777    7.6270 C.ar    1  UNL1        0.0990
     30 N          58.7679   87.7048    8.8653 N.ar    1  UNL1       -0.2410
     31 C          59.8125   87.6818    9.9416 C.ar    1  UNL1        0.1136
@<TRIPOS>BOND
     1    10    11    1
     2    11    12   ar
     3    12    13   ar
     4    13    14   ar
     5    14    15   ar
     6    15     2    1
     7     2     3    2
     8     2     4   am
     9     4     5    1
    10     5     6    1
    11     6     7    1
    12     7     1    1
    13     1    16    1
    14    16    17   ar
    15    17    18   ar
    16    18    19   ar
    17    19    22    1
    18    22    23    1
    19    22    24    1
    20    22    25    1
    21    19    20   ar
    22    20    21   ar
    23     1    26    1
    24    26    27   ar
    25    27    28   ar
    26    28    29   ar
    27    29    30   ar
    28    30    31   ar
    29     7     8    1
    30     8     9    1
    31    15    11   ar
    32     9     4    1
    33    21    16   ar
    34    31    26   ar
@<TRIPOS>MOLECULE
*****
 31 34 0 0 0
SMALL
GASTEIGER

@<TRIPOS>ATOM
      1 N          62.0438   88.9609   11.6613 N.pl3   1  UNL1       -0.2872
      2 C          66.4646   92.9508   12.3947 C.2     1  UNL1        0.2562
      3 O          66.7884   93.9214   11.2979 O.2     1  UNL1       -0.2693
      4 N          65.3594   91.9533   12.2113 N.am    1  UNL1       -0.2755
      5 C          64.5780   91.9265   10.9312 C.3     1  UNL1        0.0954
      6 C          63.4729   90.9290   10.7479 C.3     1  UNL1        0.0416
      7 C          63.1491   89.9584   11.8447 C.3     1  UNL1        0.0807
      8 C          63.9304   89.9851   13.1248 C.3     1  UNL1        0.0416
      9 C          65.0356   90.9826   13.3081 C.3     1  UNL1        0.0954
     10 C          69.3061   91.4412   12.9395 C.3     1  UNL1        0.0528
     11 C          68.5521   92.2837   13.9252 C.ar    1  UNL1        0.0704
     12 N          68.9718   92.5802   15.3344 N.ar    1  UNL1       -0.2404
     13 C          67.9250   93.4574   15.9549 C.ar    1  UNL1        0.1342
     14 S          66.8584   93.7029   14.9292 S.2     1  UNL1       -0.0603
     15 C          67.2460   92.9776   13.6748 C.ar    1  UNL1        0.0979
     16 C          62.3690   87.5296   11.3521 C.ar    1  UNL1        0.0515
     17 C          62.8853   86.6272   12.4333 C.ar    1  UNL1        0.0148
     18 C          63.2105   85.1959   12.1240 C.ar    1  UNL1        0.0051
     19 C          63.0193   84.6670   10.7334 C.ar    1  UNL1        0.0715
     20 C          62.5030   85.5693    9.6522 C.ar    1  UNL1        0.0051
     21 C          62.1778   87.0006    9.9615 C.ar    1  UNL1        0.0148
     22 C          63.3444   83.2357   10.4242 C.3     1  UNL1        0.4186
     23 F          63.6696   81.8044   10.1148 F       1  UNL1       -0.1659
     24 F          62.4700   82.7918   11.5592 F       1  UNL1       -0.1659
     25 F          64.2189   83.6796    9.2892 F       1  UNL1       -0.1659
     26 C          60.6135   89.3947   11.7873 C.ar    1  UNL1        0.0710
     27 C          59.6161   88.5027   12.4650 C.ar    1  UNL1        0.0180
     28 C          58.1857   88.9365   12.5910 C.ar    1  UNL1        0.0220
     29 C          57.7528   90.2624   12.0392 C.ar    1  UNL1        0.0990
     30 N          58.7502   91.1546   11.3614 N.ar    1  UNL1       -0.2410
     31 C          60.1806   90.7207   11.2354 C.ar    1  UNL1        0.1136
@<TRIPOS>BOND
     1    10    11    1
     2    11    12   ar
     3    12    13   ar
     4    13    14   ar
     5    14    15   ar
     6    15     2    1
     7     2     3    2
     8     2     4   am
     9     4     5    1
    10     5     6    1
    11     6     7    1
    12     7     1    1
    13     1    16    1
    14    16    17   ar
    15    17    18   ar
    16    18    19   ar
    17    19    22    1
    18    22    23    1
    19    22    24    1
    20    22    25    1
    21    19    20   ar
    22    20    21   ar
    23     1    26    1
    24    26    27   ar
    25    27    28   ar
    26    28    29   ar
    27    29    30   ar
    28    30    31   ar
    29     7     8    1
    30     8     9    1
    31    15    11   ar
    32     9     4    1
    33    21    16   ar
    34    31    26   ar
@<TRIPOS>MOLECULE
*****
 31 34 0 0 0
SMALL
GASTEIGER

@<TRIPOS>ATOM
      1 N          61.6851   94.4491   -0.0057 N.pl3   1  UNL1       -0.2872
      2 C          57.9641   94.8879   -4.6921 C.2     1  UNL1        0.2562
      3 O          57.3187   96.2025   -5.0168 O.2     1  UNL1       -0.2693
      4 N          58.8943   94.7782   -3.5204 N.am    1  UNL1       -0.2755
      5 C          59.1792   95.9831   -2.6736 C.3     1  UNL1        0.0954
      6 C          60.1095   95.8733   -1.5021 C.3     1  UNL1        0.0416
      7 C          60.7548   94.5588   -1.1774 C.3     1  UNL1        0.0807
      8 C          60.4699   93.3539   -2.0242 C.3     1  UNL1        0.0416
      9 C          59.5397   93.4637   -3.1957 C.3     1  UNL1        0.0954
     10 C          56.3006   92.2391   -3.7614 C.3     1  UNL1        0.0528
     11 C          56.9145   92.4655   -5.1111 C.ar    1  UNL1        0.0704
     12 N          56.8717   91.5142   -6.2700 N.ar    1  UNL1       -0.2404
     13 C          57.6098   92.1438   -7.4141 C.ar    1  UNL1        0.1342
     14 S          58.1088   93.4842   -6.9622 S.2     1  UNL1       -0.0603
     15 C          57.6792   93.6831   -5.5389 C.ar    1  UNL1        0.0979
     16 C          61.2899   93.6377    1.1923 C.ar    1  UNL1        0.0515
     17 C          62.3271   92.8594    1.9463 C.ar    1  UNL1        0.0148
     18 C          61.9319   92.0479    3.1444 C.ar    1  UNL1        0.0051
     19 C          60.4995   92.0148    3.5885 C.ar    1  UNL1        0.0715
     20 C          59.4623   92.7931    2.8345 C.ar    1  UNL1        0.0051
     21 C          59.8575   93.6045    1.6364 C.ar    1  UNL1        0.0148
     22 C          60.1043   91.2034    4.7865 C.3     1  UNL1        0.4186
     23 F          59.7092   90.3919    5.9847 F       1  UNL1       -0.1659
     24 F          58.6580   91.4621    4.4847 F       1  UNL1       -0.1659
     25 F          61.5507   90.9446    5.0883 F       1  UNL1       -0.1659
     26 C          63.0106   95.1509   -0.0323 C.ar    1  UNL1        0.0710
     27 C          63.3499   96.1533    1.0307 C.ar    1  UNL1        0.0180
     28 C          64.6753   96.8551    1.0042 C.ar    1  UNL1        0.0220
     29 C          65.6615   96.5544   -0.0853 C.ar    1  UNL1        0.0990
     30 N          65.3222   95.5519   -1.1484 N.ar    1  UNL1       -0.2410
     31 C          63.9968   94.8501   -1.1218 C.ar    1  UNL1        0.1136
@<TRIPOS>BOND
     1    10    11    1
     2    11    12   ar
     3    12    13   ar
     4    13    14   ar
     5    14    15   ar
     6    15     2    1
     7     2     3    2
     8     2     4   am
     9     4     5    1
    10     5     6    1
    11     6     7    1
    12     7     1    1
    13     1    16    1
    14    16    17   ar
    15    17    18   ar
    16    18    19   ar
    17    19    22    1
    18    22    23    1
    19    22    24    1
    20    22    25    1
    21    19    20   ar
    22    20    21   ar
    23     1    26    1
    24    26    27   ar
    25    27    28   ar
    26    28    29   ar
    27    29    30   ar
    28    30    31   ar
    29     7     8    1
    30     8     9    1
    31    15    11   ar
    32     9     4    1
    33    21    16   ar
    34    31    26   ar
