@<TRIPOS>MOLECULE
*****
 19 20 0 0 0
SMALL
GASTEIGER

@<TRIPOS>ATOM
      1 C          59.4929   87.2848    7.8006 C.3     1  UNL1        0.0521
      2 C          60.4087   87.5625    8.9557 C.ar    1  UNL1        0.0596
      3 C          60.9478   86.4278    9.7752 C.ar    1  UNL1        0.0106
      4 C          61.8635   86.7055   10.9302 C.ar    1  UNL1       -0.0175
      5 C          62.4026   85.5706   11.7497 C.3     1  UNL1        0.0312
      6 C          62.2402   88.1181   11.2659 C.ar    1  UNL1        0.0334
      7 C          63.1164   88.6956   12.3376 C.ar    1  UNL1        0.0537
      8 N          63.8597   87.9179   13.3829 N.pl3   1  UNL1       -0.3564
      9 C          63.1189   90.1874   12.1805 C.ar    1  UNL1        0.0968
     10 S          62.2442   90.5319   11.0117 S.2     1  UNL1       -0.0622
     11 C          61.7011   89.2529   10.4464 C.ar    1  UNL1        0.1113
     12 N          60.7854   88.9751    9.2913 N.ar    1  UNL1       -0.2431
     13 H          63.7949   86.9358   13.4046 H       1  UNL1        0.1424
     14 H          64.4123   88.3896   14.0473 H       1  UNL1        0.1424
     15 C          63.8651   91.1634   13.0412 C.2     1  UNL1        0.2500
     16 N          64.9410   92.0207   12.4434 N.am    1  UNL1       -0.3249
     17 O          63.5354   91.2819   14.4997 O.2     1  UNL1       -0.2698
     18 H          65.1573   91.9429   11.4861 H       1  UNL1        0.1453
     19 H          65.4307   92.6613   13.0083 H       1  UNL1        0.1453
@<TRIPOS>BOND
     1     1     2    1
     2     2     3   ar
     3     3     4   ar
     4     4     5    1
     5     4     6   ar
     6     6     7   ar
     7     7     8    1
     8     7     9   ar
     9     9    15    1
    10    15    16   am
    11    15    17    2
    12     9    10   ar
    13    10    11   ar
    14    11    12   ar
    15    12     2   ar
    16    11     6   ar
    17     8    13    1
    18     8    14    1
    19    16    18    1
    20    16    19    1
@<TRIPOS>MOLECULE
*****
 19 20 0 0 0
SMALL
GASTEIGER

@<TRIPOS>ATOM
      1 C          67.7643   92.0401   15.2285 C.3     1  UNL1        0.0521
      2 C          66.7016   91.8765   14.1826 C.ar    1  UNL1        0.0596
      3 C          66.8364   92.5728   12.8610 C.ar    1  UNL1        0.0106
      4 C          65.7737   92.4092   11.8151 C.ar    1  UNL1       -0.0175
      5 C          65.9087   93.1056   10.4934 C.3     1  UNL1        0.0312
      6 C          64.5761   91.5492   12.0909 C.ar    1  UNL1        0.0334
      7 C          63.3767   91.2023   11.2596 C.ar    1  UNL1        0.0537
      8 N          63.1017   91.6819    9.8653 N.pl3   1  UNL1       -0.3564
      9 C          62.5005   90.2915   12.0676 C.ar    1  UNL1        0.0968
     10 S          63.1584   90.0755   13.3982 S.2     1  UNL1       -0.0622
     11 C          64.4412   90.8528   13.4125 C.ar    1  UNL1        0.1113
     12 N          65.5040   91.0165   14.4584 N.ar    1  UNL1       -0.2431
     13 H          63.7407   92.2812    9.4159 H       1  UNL1        0.1424
     14 H          62.2824   91.3975    9.3995 H       1  UNL1        0.1424
     15 C          61.1954   89.7004   11.6229 C.2     1  UNL1        0.2500
     16 N          60.0436   89.6199   12.5805 N.am    1  UNL1       -0.3249
     17 O          61.0422   89.1901   10.2208 O.2     1  UNL1       -0.2698
     18 H          60.1442   89.9549   13.5007 H       1  UNL1        0.1453
     19 H          59.1871   89.2320   12.2887 H       1  UNL1        0.1453
@<TRIPOS>BOND
     1     1     2    1
     2     2     3   ar
     3     3     4   ar
     4     4     5    1
     5     4     6   ar
     6     6     7   ar
     7     7     8    1
     8     7     9   ar
     9     9    15    1
    10    15    16   am
    11    15    17    2
    12     9    10   ar
    13    10    11   ar
    14    11    12   ar
    15    12     2   ar
    16    11     6   ar
    17     8    13    1
    18     8    14    1
    19    16    18    1
    20    16    19    1
@<TRIPOS>MOLECULE
*****
 19 20 0 0 0
SMALL
GASTEIGER

@<TRIPOS>ATOM
      1 C          60.2443   88.7060    9.9765 C.3     1  UNL1        0.0521
      2 C          61.0541   87.4591   10.1754 C.ar    1  UNL1        0.0596
      3 C          61.6886   86.7811    8.9974 C.ar    1  UNL1        0.0106
      4 C          62.4985   85.5343    9.1963 C.ar    1  UNL1       -0.0175
      5 C          63.1330   84.8562    8.0182 C.3     1  UNL1        0.0312
      6 C          62.6738   84.9655   10.5731 C.ar    1  UNL1        0.0334
      7 C          63.4109   83.7590   11.0743 C.ar    1  UNL1        0.0537
      8 N          64.1901   82.7903   10.2351 N.pl3   1  UNL1       -0.3564
      9 C          63.2319   83.6914   12.5621 C.ar    1  UNL1        0.0968
     10 S          62.3842   84.8561   12.9804 S.2     1  UNL1       -0.0622
     11 C          62.0393   85.6435   11.7510 C.ar    1  UNL1        0.1113
     12 N          61.2295   86.8903   11.5522 N.ar    1  UNL1       -0.2431
     13 H          64.2498   82.9199    9.2610 H       1  UNL1        0.1424
     14 H          64.6419   82.0248   10.6584 H       1  UNL1        0.1424
     15 C          63.8007   82.6431   13.4718 C.2     1  UNL1        0.2500
     16 N          63.9133   82.9085   14.9439 N.am    1  UNL1       -0.3249
     17 O          64.2570   81.3296   12.9095 O.2     1  UNL1       -0.2698
     18 H          63.6138   83.7707   15.3129 H       1  UNL1        0.1453
     19 H          64.2866   82.2205   15.5410 H       1  UNL1        0.1453
@<TRIPOS>BOND
     1     1     2    1
     2     2     3   ar
     3     3     4   ar
     4     4     5    1
     5     4     6   ar
     6     6     7   ar
     7     7     8    1
     8     7     9   ar
     9     9    15    1
    10    15    16   am
    11    15    17    2
    12     9    10   ar
    13    10    11   ar
    14    11    12   ar
    15    12     2   ar
    16    11     6   ar
    17     8    13    1
    18     8    14    1
    19    16    18    1
    20    16    19    1
@<TRIPOS>MOLECULE
*****
 19 20 0 0 0
SMALL
GASTEIGER

@<TRIPOS>ATOM
      1 C          65.7722   92.3940   14.9194 C.3     1  UNL1        0.0521
      2 C          65.0088   91.3324   14.1845 C.ar    1  UNL1        0.0596
      3 C          65.0102   89.9207   14.6916 C.ar    1  UNL1        0.0106
      4 C          64.2467   88.8591   13.9568 C.ar    1  UNL1       -0.0175
      5 C          64.2482   87.4473   14.4639 C.3     1  UNL1        0.0312
      6 C          63.4818   89.2090   12.7149 C.ar    1  UNL1        0.0334
      7 C          62.6430   88.3821   11.7862 C.ar    1  UNL1        0.0537
      8 N          62.3717   86.9125   11.9158 N.pl3   1  UNL1       -0.3564
      9 C          62.1231   89.2827   10.7051 C.ar    1  UNL1        0.0968
     10 S          62.6406   90.6662   10.9656 S.2     1  UNL1       -0.0622
     11 C          63.4804   90.6207   12.2078 C.ar    1  UNL1        0.1113
     12 N          64.2438   91.6824   12.9426 N.ar    1  UNL1       -0.2431
     13 H          62.7600   86.4044   12.6644 H       1  UNL1        0.1424
     14 H          61.8054   86.4561   11.2523 H       1  UNL1        0.1424
     15 C          61.2407   88.8717    9.5638 C.2     1  UNL1        0.2500
     16 N          60.3274   89.8745    8.9232 N.am    1  UNL1       -0.3249
     17 O          61.2715   87.4581    9.0632 O.2     1  UNL1       -0.2698
     18 H          60.3072   90.8023    9.2518 H       1  UNL1        0.1453
     19 H          59.7482   89.6049    8.1741 H       1  UNL1        0.1453
@<TRIPOS>BOND
     1     1     2    1
     2     2     3   ar
     3     3     4   ar
     4     4     5    1
     5     4     6   ar
     6     6     7   ar
     7     7     8    1
     8     7     9   ar
     9     9    15    1
    10    15    16   am
    11    15    17    2
    12     9    10   ar
    13    10    11   ar
    14    11    12   ar
    15    12     2   ar
    16    11     6   ar
    17     8    13    1
    18     8    14    1
    19    16    18    1
    20    16    19    1
@<TRIPOS>MOLECULE
*****
 19 20 0 0 0
SMALL
GASTEIGER

@<TRIPOS>ATOM
      1 C          61.8599   89.4930   10.1342 C.3     1  UNL1        0.0521
      2 C          62.4192   88.5447   11.1530 C.ar    1  UNL1        0.0596
      3 C          63.1604   89.0753   12.3442 C.ar    1  UNL1        0.0106
      4 C          63.7197   88.1270   13.3630 C.ar    1  UNL1       -0.0175
      5 C          64.4609   88.6576   14.5543 C.3     1  UNL1        0.0312
      6 C          63.5379   86.6481   13.1905 C.ar    1  UNL1        0.0334
      7 C          63.9742   85.4793   14.0232 C.ar    1  UNL1        0.0537
      8 N          64.7464   85.5509   15.3072 N.pl3   1  UNL1       -0.3564
      9 C          63.5027   84.2263   13.3466 C.ar    1  UNL1        0.0968
     10 S          62.7749   84.6207   12.0957 S.2     1  UNL1       -0.0622
     11 C          62.7967   86.1175   11.9992 C.ar    1  UNL1        0.1113
     12 N          62.2374   87.0658   10.9805 N.ar    1  UNL1       -0.2431
     13 H          65.0122   86.4251   15.6736 H       1  UNL1        0.1424
     14 H          64.9875   84.7236   15.7834 H       1  UNL1        0.1424
     15 C          63.7206   82.8249   13.8352 C.2     1  UNL1        0.2500
     16 N          63.9294   81.7117   12.8518 N.am    1  UNL1       -0.3249
     17 O          63.7298   82.5367   15.3072 O.2     1  UNL1       -0.2698
     18 H          63.9234   81.9008   11.8856 H       1  UNL1        0.1453
     19 H          64.0725   80.7919   13.1724 H       1  UNL1        0.1453
@<TRIPOS>BOND
     1     1     2    1
     2     2     3   ar
     3     3     4   ar
     4     4     5    1
     5     4     6   ar
     6     6     7   ar
     7     7     8    1
     8     7     9   ar
     9     9    15    1
    10    15    16   am
    11    15    17    2
    12     9    10   ar
    13    10    11   ar
    14    11    12   ar
    15    12     2   ar
    16    11     6   ar
    17     8    13    1
    18     8    14    1
    19    16    18    1
    20    16    19    1
@<TRIPOS>MOLECULE
*****
 19 20 0 0 0
SMALL
GASTEIGER

@<TRIPOS>ATOM
      1 C          59.0604   88.1719    7.2858 C.3     1  UNL1        0.0521
      2 C          59.9942   88.0877    8.4567 C.ar    1  UNL1        0.0596
      3 C          60.5767   89.3394    9.0430 C.ar    1  UNL1        0.0106
      4 C          61.5104   89.2552   10.2139 C.ar    1  UNL1       -0.0175
      5 C          62.0929   90.5070   10.8002 C.3     1  UNL1        0.0312
      6 C          61.8617   87.9193   10.7985 C.ar    1  UNL1        0.0334
      7 C          62.7473   87.5262   11.9436 C.ar    1  UNL1        0.0537
      8 N          63.5305   88.4634   12.8144 N.pl3   1  UNL1       -0.3564
      9 C          62.7121   86.0316   12.0650 C.ar    1  UNL1        0.0968
     10 S          61.8048   85.5008   10.9950 S.2     1  UNL1       -0.0622
     11 C          61.2792   86.6675   10.2122 C.ar    1  UNL1        0.1113
     12 N          60.3455   86.7517    9.0413 N.ar    1  UNL1       -0.2431
     13 H          63.4888   89.4340   12.6552 H       1  UNL1        0.1424
     14 H          64.0863   88.1078   13.5450 H       1  UNL1        0.1424
     15 C          63.4541   85.2116   13.0786 C.2     1  UNL1        0.2500
     16 N          63.8059   83.7850   12.7769 N.am    1  UNL1       -0.3249
     17 O          63.8442   85.8183   14.3938 O.2     1  UNL1       -0.2698
     18 H          63.5499   83.3868   11.9137 H       1  UNL1        0.1453
     19 H          64.2929   83.2468   13.4421 H       1  UNL1        0.1453
@<TRIPOS>BOND
     1     1     2    1
     2     2     3   ar
     3     3     4   ar
     4     4     5    1
     5     4     6   ar
     6     6     7   ar
     7     7     8    1
     8     7     9   ar
     9     9    15    1
    10    15    16   am
    11    15    17    2
    12     9    10   ar
    13    10    11   ar
    14    11    12   ar
    15    12     2   ar
    16    11     6   ar
    17     8    13    1
    18     8    14    1
    19    16    18    1
    20    16    19    1
@<TRIPOS>MOLECULE
*****
 19 20 0 0 0
SMALL
GASTEIGER

@<TRIPOS>ATOM
      1 C          63.9916   91.3206   13.0496 C.3     1  UNL1        0.0521
      2 C          63.2498   90.2927   12.2476 C.ar    1  UNL1        0.0596
      3 C          63.4503   88.8332   12.5298 C.ar    1  UNL1        0.0106
      4 C          62.7085   87.8054   11.7278 C.ar    1  UNL1       -0.0175
      5 C          62.9091   86.3459   12.0101 C.3     1  UNL1        0.0312
      6 C          61.7661   88.2370   10.6436 C.ar    1  UNL1        0.0334
      7 C          60.9033   87.4587    9.6951 C.ar    1  UNL1        0.0537
      8 N          60.7936   85.9642    9.6270 N.pl3   1  UNL1       -0.3564
      9 C          60.1695   88.4371    8.8266 C.ar    1  UNL1        0.0968
     10 S          60.5787   89.8202    9.2384 S.2     1  UNL1       -0.0622
     11 C          61.5656   89.6965   10.3614 C.ar    1  UNL1        0.1113
     12 N          62.3074   90.7243   11.1634 N.ar    1  UNL1       -0.2431
     13 H          61.3184   85.4036   10.2429 H       1  UNL1        0.1424
     14 H          60.1967   85.5441    8.9664 H       1  UNL1        0.1424
     15 C          59.1970   88.0928    7.7376 C.2     1  UNL1        0.2500
     16 N          58.9533   89.0594    6.6167 N.am    1  UNL1       -0.3249
     17 O          58.4685   86.7821    7.7694 O.2     1  UNL1       -0.2698
     18 H          59.4315   89.9197    6.5958 H       1  UNL1        0.1453
     19 H          58.3151   88.8335    5.9019 H       1  UNL1        0.1453
@<TRIPOS>BOND
     1     1     2    1
     2     2     3   ar
     3     3     4   ar
     4     4     5    1
     5     4     6   ar
     6     6     7   ar
     7     7     8    1
     8     7     9   ar
     9     9    15    1
    10    15    16   am
    11    15    17    2
    12     9    10   ar
    13    10    11   ar
    14    11    12   ar
    15    12     2   ar
    16    11     6   ar
    17     8    13    1
    18     8    14    1
    19    16    18    1
    20    16    19    1
@<TRIPOS>MOLECULE
*****
 19 20 0 0 0
SMALL
GASTEIGER

@<TRIPOS>ATOM
      1 C          58.7900   92.1088    4.5493 C.3     1  UNL1        0.0521
      2 C          60.0606   92.3531    3.7904 C.ar    1  UNL1        0.0596
      3 C          61.2253   91.4231    3.9586 C.ar    1  UNL1        0.0106
      4 C          62.4959   91.6675    3.1997 C.ar    1  UNL1       -0.0175
      5 C          63.6607   90.7374    3.3680 C.3     1  UNL1        0.0312
      6 C          62.6017   92.8419    2.2726 C.ar    1  UNL1        0.0334
      7 C          63.7174   93.3335    1.3988 C.ar    1  UNL1        0.0537
      8 N          65.0707   92.7021    1.2580 N.pl3   1  UNL1       -0.3564
      9 C          63.2421   94.5674    0.6905 C.ar    1  UNL1        0.0968
     10 S          61.8327   94.8384    1.1265 S.2     1  UNL1       -0.0622
     11 C          61.4369   93.7719    2.1044 C.ar    1  UNL1        0.1113
     12 N          60.1664   93.5275    2.8633 N.ar    1  UNL1       -0.2431
     13 H          65.2898   91.8887    1.7676 H       1  UNL1        0.1424
     14 H          65.7398   93.1011    0.6560 H       1  UNL1        0.1424
     15 C          64.0368   95.3865   -0.2830 C.2     1  UNL1        0.2500
     16 N          63.3339   96.2907   -1.2517 N.am    1  UNL1       -0.3249
     17 O          65.5344   95.3015   -0.2877 O.2     1  UNL1       -0.2698
     18 H          62.3510   96.3465   -1.2486 H       1  UNL1        0.1453
     19 H          63.8554   96.8283   -1.8906 H       1  UNL1        0.1453
@<TRIPOS>BOND
     1     1     2    1
     2     2     3   ar
     3     3     4   ar
     4     4     5    1
     5     4     6   ar
     6     6     7   ar
     7     7     8    1
     8     7     9   ar
     9     9    15    1
    10    15    16   am
    11    15    17    2
    12     9    10   ar
    13    10    11   ar
    14    11    12   ar
    15    12     2   ar
    16    11     6   ar
    17     8    13    1
    18     8    14    1
    19    16    18    1
    20    16    19    1
@<TRIPOS>MOLECULE
*****
 19 20 0 0 0
SMALL
GASTEIGER

@<TRIPOS>ATOM
      1 C          67.7673   92.3867   13.8634 C.3     1  UNL1        0.0521
      2 C          66.3841   91.8430   13.6604 C.ar    1  UNL1        0.0596
      3 C          65.6514   91.2102   14.8062 C.ar    1  UNL1        0.0106
      4 C          64.2682   90.6665   14.6032 C.ar    1  UNL1       -0.0175
      5 C          63.5355   90.0338   15.7491 C.3     1  UNL1        0.0312
      6 C          63.6177   90.7556   13.2546 C.ar    1  UNL1        0.0334
      7 C          62.2747   90.3104   12.7567 C.ar    1  UNL1        0.0537
      8 N          61.2150   89.6275   13.5695 N.pl3   1  UNL1       -0.3564
      9 C          62.1773   90.6681   11.3031 C.ar    1  UNL1        0.0968
     10 S          63.4602   91.3342   10.9028 S.2     1  UNL1       -0.0622
     11 C          64.3504   91.3883   12.1089 C.ar    1  UNL1        0.1113
     12 N          65.7336   91.9320   12.3118 N.ar    1  UNL1       -0.2431
     13 H          61.3733   89.4342   14.5218 H       1  UNL1        0.1424
     14 H          60.3612   89.3727   13.1508 H       1  UNL1        0.1424
     15 C          61.0031   90.4055   10.4073 C.2     1  UNL1        0.2500
     16 N          61.2120   89.7752    9.0623 N.am    1  UNL1       -0.3249
     17 O          59.6200   90.7734   10.8565 O.2     1  UNL1       -0.2698
     18 H          62.1198   89.5338    8.7675 H       1  UNL1        0.1453
     19 H          60.4414   89.6029    8.4744 H       1  UNL1        0.1453
@<TRIPOS>BOND
     1     1     2    1
     2     2     3   ar
     3     3     4   ar
     4     4     5    1
     5     4     6   ar
     6     6     7   ar
     7     7     8    1
     8     7     9   ar
     9     9    15    1
    10    15    16   am
    11    15    17    2
    12     9    10   ar
    13    10    11   ar
    14    11    12   ar
    15    12     2   ar
    16    11     6   ar
    17     8    13    1
    18     8    14    1
    19    16    18    1
    20    16    19    1
