@<TRIPOS>MOLECULE
*****
 57 64 0 0 0
SMALL
GASTEIGER

@<TRIPOS>ATOM
      1 N          65.3980   89.2129   14.5641 N.3     1  UNL1       -0.1862
      2 C          65.5952   87.9576   15.3612 C.3     1  UNL1        0.1775
      3 C          64.8326   86.7158   15.0056 C.2     1  UNL1        0.2452
      4 O          65.0299   85.4605   15.8027 O.2     1  UNL1       -0.2732
      5 N          63.8729   86.7293   13.8529 N.am    1  UNL1       -0.2541
      6 C          63.1103   85.4875   13.4973 C.3     1  UNL1        0.1577
      7 C          62.1506   85.5010   12.3446 C.2     1  UNL1        0.2445
      8 O          61.3880   84.2593   11.9890 O.2     1  UNL1       -0.2731
      9 N          61.9533   86.7564   11.5475 N.am    1  UNL1       -0.2705
     10 C          62.7159   87.9982   11.9032 C.3     1  UNL1        0.1359
     11 C          63.6757   87.9846   13.0559 C.3     1  UNL1        0.1908
     12 N          64.4382   89.2264   13.4115 N.am    1  UNL1       -0.1863
     13 C          64.2410   90.4818   12.6144 C.2     1  UNL1        0.3191
     14 O          63.2813   90.4953   11.4617 O.2     1  UNL1       -0.2512
     15 N          65.0036   91.7235   12.9700 N.am    1  UNL1       -0.2836
     16 H          65.6335   91.7147   13.7265 H       1  UNL1        0.1513
     17 C          66.1606   90.4547   14.9198 C.3     1  UNL1        0.1188
     18 C          66.2849   92.7438   16.1423 C.2     1  UNL1       -0.0034
     19 C          65.5004   91.5361   15.7226 C.2     1  UNL1       -0.0071
     20 C          63.3075   84.2323   14.2943 C.3     1  UNL1        0.0556
     21 C          63.1201   82.8936   13.6439 C.ar    1  UNL1       -0.0198
     22 C          62.1477   81.9086   14.2218 C.ar    1  UNL1       -0.0011
     23 C          61.9603   80.5700   13.5715 C.ar    1  UNL1        0.0363
     24 C          62.7452   80.2164   12.3432 C.ar    1  UNL1        0.1337
     25 O          62.5578   78.8778   11.6928 O.3     1  UNL1       -0.5055
     26 C          63.7177   81.2015   11.7652 C.ar    1  UNL1        0.0363
     27 C          63.9051   82.5401   12.4156 C.ar    1  UNL1       -0.0011
     28 H          61.9504   78.2625   12.0538 H       1  UNL1        0.2922
     29 C          60.9936   86.7699   10.3949 C.3     1  UNL1        0.1217
     30 C          60.4546   88.0728    9.8829 C.ar    1  UNL1        0.0135
     31 C          60.2812   89.2322   10.8186 C.ar    1  UNL1       -0.0012
     32 C          59.7423   90.5351   10.3066 C.ar    1  UNL1       -0.0002
     33 C          59.3768   90.6784    8.8590 C.ar    1  UNL1        0.0016
     34 C          59.5502   89.5190    7.9233 C.ar    1  UNL1        0.0214
     35 C          59.2782   89.3636    6.4563 C.ar    1  UNL1        0.0721
     36 C          59.6489   87.9648    6.0617 C.ar    1  UNL1        0.0805
     37 N          60.1501   87.2557    7.2847 N.ar    1  UNL1       -0.3241
     38 C          60.6284   85.8353    7.3464 C.3     1  UNL1        0.1305
     39 C          60.0891   88.2161    8.4352 C.ar    1  UNL1        0.0577
     40 C          58.7313   90.4215    5.5442 C.2     1  UNL1        0.2506
     41 O          57.2642   90.7340    5.5527 O.2     1  UNL1       -0.2699
     42 N          59.6515   91.1669    4.6235 N.am    1  UNL1       -0.2732
     43 C          61.1186   90.8543    4.6150 C.3     1  UNL1        0.1110
     44 C          62.0388   91.5997    3.6944 C.3     1  UNL1        0.0939
     45 N          61.4921   92.6576    2.7821 N.3     1  UNL1       -0.2709
     46 C          62.1505   93.5511    1.7731 C.3     1  UNL1        0.0722
     47 C          61.0903   94.4158    1.1581 C.3     1  UNL1        0.0188
     48 C          59.7767   94.0567    1.7869 C.3     1  UNL1        0.0191
     49 C          60.0250   92.9700    2.7907 C.3     1  UNL1        0.0775
     50 C          59.1048   92.2247    3.7114 C.3     1  UNL1        0.1096
     51 C          64.8064   92.9788   12.1730 C.3     1  UNL1        0.1177
     52 C          65.8422   93.4040   11.1749 C.ar    1  UNL1       -0.0025
     53 C          65.9233   94.8381   10.7428 C.ar    1  UNL1       -0.0026
     54 C          66.9592   95.2634    9.7447 C.ar    1  UNL1       -0.0003
     55 C          67.9140   94.2545    9.1787 C.ar    1  UNL1       -0.0000
     56 C          67.8329   92.8203    9.6107 C.ar    1  UNL1       -0.0003
     57 C          66.7971   92.3950   10.6088 C.ar    1  UNL1       -0.0026
@<TRIPOS>BOND
     1    18    19    2
     2    19    17    1
     3    17     1    1
     4     1     2    1
     5     2     3    1
     6     3     4    2
     7     3     5   am
     8     5     6    1
     9     6    20    1
    10    20    21    1
    11    21    22   ar
    12    22    23   ar
    13    23    24   ar
    14    24    25    1
    15    24    26   ar
    16    26    27   ar
    17     6     7    1
    18     7     8    2
    19     7     9   am
    20     9    29    1
    21    29    30    1
    22    30    31   ar
    23    31    32   ar
    24    32    33   ar
    25    33    34   ar
    26    34    35   ar
    27    35    40    1
    28    40    41    2
    29    40    42   am
    30    42    43    1
    31    43    44    1
    32    44    45    1
    33    45    46    1
    34    46    47    1
    35    47    48    1
    36    48    49    1
    37    49    50    1
    38    35    36   ar
    39    36    37   ar
    40    37    38    1
    41    37    39   ar
    42     9    10    1
    43    11    10    1
    44    11    12    1
    45    12    13   am
    46    13    14    2
    47    13    15   am
    48    15    51    1
    49    51    52    1
    50    52    53   ar
    51    53    54   ar
    52    54    55   ar
    53    55    56   ar
    54    56    57   ar
    55    12     1    1
    56    57    52   ar
    57    11     5    1
    58    27    21   ar
    59    39    30   ar
    60    39    34   ar
    61    50    42    1
    62    49    45    1
    63    25    28    1
    64    15    16    1
@<TRIPOS>MOLECULE
*****
 57 64 0 0 0
SMALL
GASTEIGER

@<TRIPOS>ATOM
      1 N          63.9782   86.4059   15.7618 N.3     1  UNL1       -0.1862
      2 C          64.1593   84.9496   16.0721 C.3     1  UNL1        0.1775
      3 C          63.9220   83.9206   15.0068 C.2     1  UNL1        0.2452
      4 O          64.1031   82.4642   15.3172 O.2     1  UNL1       -0.2732
      5 N          63.5036   84.3479   13.6312 N.am    1  UNL1       -0.2541
      6 C          63.2663   83.3189   12.5659 C.3     1  UNL1        0.1577
      7 C          62.8479   83.7462   11.1903 C.2     1  UNL1        0.2445
      8 O          62.6106   82.7172   10.1250 O.2     1  UNL1       -0.2731
      9 N          62.6669   85.2026   10.8799 N.am    1  UNL1       -0.2705
     10 C          62.9042   86.2316   11.9452 C.3     1  UNL1        0.1359
     11 C          63.3226   85.8042   13.3209 C.3     1  UNL1        0.1908
     12 N          63.5599   86.8332   14.3862 N.am    1  UNL1       -0.1863
     13 C          63.3788   88.2896   14.0758 C.2     1  UNL1        0.3191
     14 O          62.9604   88.7169   12.7002 O.2     1  UNL1       -0.2512
     15 N          63.6161   89.3186   15.1411 N.am    1  UNL1       -0.2836
     16 H          63.8907   89.0381   16.0440 H       1  UNL1        0.1513
     17 C          64.2155   87.4349   16.8271 C.3     1  UNL1        0.1188
     18 C          62.5234   86.7309   18.6686 C.2     1  UNL1       -0.0034
     19 C          63.1178   87.7884   17.7862 C.2     1  UNL1       -0.0071
     20 C          63.4474   81.8626   12.8762 C.3     1  UNL1        0.0556
     21 C          62.2721   81.0355   13.3060 C.ar    1  UNL1       -0.0198
     22 C          62.3562   79.5383   13.2725 C.ar    1  UNL1       -0.0011
     23 C          61.1810   78.7113   13.7023 C.ar    1  UNL1        0.0363
     24 C          59.9215   79.3814   14.1655 C.ar    1  UNL1        0.1337
     25 O          58.7462   78.5544   14.5952 O.3     1  UNL1       -0.5055
     26 C          59.8373   80.8788   14.1990 C.ar    1  UNL1        0.0363
     27 C          61.0126   81.7058   13.7692 C.ar    1  UNL1       -0.0011
     28 H          58.7988   77.6191   14.5743 H       1  UNL1        0.2922
     29 C          62.2485   85.6299    9.5043 C.3     1  UNL1        0.1217
     30 C          61.8793   87.0601    9.2431 C.ar    1  UNL1        0.0135
     31 C          62.4308   88.1485   10.1156 C.ar    1  UNL1       -0.0012
     32 C          62.0616   89.5787    9.8544 C.ar    1  UNL1       -0.0002
     33 C          61.1410   89.9205    8.7206 C.ar    1  UNL1        0.0016
     34 C          60.5895   88.8321    7.8480 C.ar    1  UNL1        0.0214
     35 C          59.6671   88.8642    6.6656 C.ar    1  UNL1        0.0721
     36 C          59.4662   87.4538    6.1961 C.ar    1  UNL1        0.0805
     37 N          60.2644   86.5502    7.0883 N.ar    1  UNL1       -0.3241
     38 C          60.3528   85.0568    6.9788 C.3     1  UNL1        0.1305
     39 C          60.9587   87.4020    8.1093 C.ar    1  UNL1        0.0577
     40 C          59.0533   90.0913    6.0592 C.2     1  UNL1        0.2506
     41 O          57.6656   90.5065    6.4488 O.2     1  UNL1       -0.2699
     42 N          59.8273   90.9030    5.0632 N.am    1  UNL1       -0.2732
     43 C          61.2150   90.4876    4.6736 C.3     1  UNL1        0.1110
     44 C          61.9890   91.2994    3.6776 C.3     1  UNL1        0.0939
     45 N          61.3753   92.5265    3.0711 N.3     1  UNL1       -0.2709
     46 C          61.8922   93.5176    2.0708 C.3     1  UNL1        0.0722
     47 C          60.8238   94.5454    1.8423 C.3     1  UNL1        0.0188
     48 C          59.6468   94.1895    2.7012 C.3     1  UNL1        0.0191
     49 C          59.9876   92.9417    3.4607 C.3     1  UNL1        0.0775
     50 C          59.2136   92.1300    4.4567 C.3     1  UNL1        0.1096
     51 C          63.4350   90.7749   14.8308 C.3     1  UNL1        0.1177
     52 C          64.4640   91.5019   14.0168 C.ar    1  UNL1       -0.0025
     53 C          65.7036   92.0314   14.6747 C.ar    1  UNL1       -0.0026
     54 C          66.7327   92.7584   13.8606 C.ar    1  UNL1       -0.0003
     55 C          66.5220   92.9558   12.3887 C.ar    1  UNL1       -0.0000
     56 C          65.2823   92.4263   11.7307 C.ar    1  UNL1       -0.0003
     57 C          64.2533   91.6993   12.5448 C.ar    1  UNL1       -0.0026
@<TRIPOS>BOND
     1    18    19    2
     2    19    17    1
     3    17     1    1
     4     1     2    1
     5     2     3    1
     6     3     4    2
     7     3     5   am
     8     5     6    1
     9     6    20    1
    10    20    21    1
    11    21    22   ar
    12    22    23   ar
    13    23    24   ar
    14    24    25    1
    15    24    26   ar
    16    26    27   ar
    17     6     7    1
    18     7     8    2
    19     7     9   am
    20     9    29    1
    21    29    30    1
    22    30    31   ar
    23    31    32   ar
    24    32    33   ar
    25    33    34   ar
    26    34    35   ar
    27    35    40    1
    28    40    41    2
    29    40    42   am
    30    42    43    1
    31    43    44    1
    32    44    45    1
    33    45    46    1
    34    46    47    1
    35    47    48    1
    36    48    49    1
    37    49    50    1
    38    35    36   ar
    39    36    37   ar
    40    37    38    1
    41    37    39   ar
    42     9    10    1
    43    11    10    1
    44    11    12    1
    45    12    13   am
    46    13    14    2
    47    13    15   am
    48    15    51    1
    49    51    52    1
    50    52    53   ar
    51    53    54   ar
    52    54    55   ar
    53    55    56   ar
    54    56    57   ar
    55    12     1    1
    56    57    52   ar
    57    11     5    1
    58    27    21   ar
    59    39    30   ar
    60    39    34   ar
    61    50    42    1
    62    49    45    1
    63    25    28    1
    64    15    16    1
