@<TRIPOS>MOLECULE
*****
 43 45 0 0 0
SMALL
GASTEIGER

@<TRIPOS>ATOM
      1 C          63.3806   87.2400   16.2371 C.3     1  UNL1        0.2120
      2 O          63.8540   87.4989   14.8375 O.3     1  UNL1       -0.3763
      3 H          63.7491   88.4405   14.6296 H       1  UNL1        0.2107
      4 C          62.9073   86.9812   17.6367 C.3     1  UNL1        0.4226
      5 F          62.4339   86.7223   19.0362 F       1  UNL1       -0.1675
      6 F          63.2351   88.3967   18.0093 F       1  UNL1       -0.1675
      7 F          62.5794   85.5656   17.2640 F       1  UNL1       -0.1675
      8 C          63.7202   85.7872   16.0832 C.3     1  UNL1        0.1307
      9 N          64.0528   85.2340   14.7291 N.am    1  UNL1       -0.2733
     10 C          62.9605   84.7130   13.8428 C.2     1  UNL1        0.2503
     11 O          61.5357   84.7451   14.3105 O.2     1  UNL1       -0.2699
     12 C          63.2932   84.1599   12.4888 C.ar    1  UNL1        0.0706
     13 C          64.0439   82.8667   12.3706 C.ar    1  UNL1        0.0058
     14 C          64.3765   82.3136   11.0166 C.ar    1  UNL1        0.0002
     15 C          63.9584   83.0537    9.7806 C.ar    1  UNL1        0.0013
     16 C          63.2077   84.3469    9.8989 C.ar    1  UNL1        0.0185
     17 C          62.8751   84.9001   11.2529 C.ar    1  UNL1        0.1101
     18 S          62.1243   86.1933   11.3711 S.O2    1  UNL1        0.0106
     19 C          61.3736   87.4865   11.4893 C.3     1  UNL1        0.1816
     20 O          63.2299   86.7582   12.2129 O.2     1  UNL1       -0.1686
     21 O          61.0188   85.6284   10.5292 O.2     1  UNL1       -0.1686
     22 C          66.5924   85.4431   15.2356 C.3     1  UNL1        0.0233
     23 C          65.4776   85.2019   14.2614 C.3     1  UNL1        0.0939
     24 C          63.0411   88.6930   16.3910 C.3     1  UNL1        0.1269
     25 N          64.0031   89.7422   15.9181 N.am    1  UNL1       -0.2982
     26 C          63.8443   90.3451   14.5538 C.2     1  UNL1        0.2502
     27 O          62.7235   89.8989   13.6624 O.2     1  UNL1       -0.2700
     28 H          64.7388   90.0351   16.5031 H       1  UNL1        0.1498
     29 C          64.8063   91.3943   14.0809 C.ar    1  UNL1        0.1053
     30 C          65.8191   92.1076   14.9269 C.ar    1  UNL1        0.1278
     31 N          66.5632   93.0686   14.0479 N.ar    1  UNL1       -0.1622
     32 N          66.0104   92.9493   12.6586 N.ar    1  UNL1       -0.2163
     33 C          64.9246   91.9146   12.6790 C.ar    1  UNL1        0.1327
     34 N          64.1015   91.4770   11.5039 N.pl3   1  UNL1       -0.3424
     35 H          64.2543   91.8796   10.6186 H       1  UNL1        0.1437
     36 H          63.4084   90.7871   11.6179 H       1  UNL1        0.1437
     37 C          66.4637   93.7281   11.4593 C.ar    1  UNL1        0.0843
     38 C          67.2284   93.0433   10.3656 C.ar    1  UNL1        0.0215
     39 C          67.6817   93.8221    9.1664 C.ar    1  UNL1        0.0312
     40 C          67.3703   95.2856    9.0610 C.ar    1  UNL1        0.1402
     41 F          67.8236   96.0644    7.8618 F       1  UNL1       -0.2042
     42 C          66.6056   95.9704   10.1548 C.ar    1  UNL1        0.0312
     43 C          66.1523   95.1916   11.3539 C.ar    1  UNL1        0.0215
@<TRIPOS>BOND
     1    22    23    1
     2    23     9    1
     3     9     8    1
     4     8     1    1
     5     1     2    1
     6     1    24    1
     7    24    25    1
     8    25    26   am
     9    26    27    2
    10    26    29    1
    11    29    30   ar
    12    30    31   ar
    13    31    32   ar
    14    32    37    1
    15    37    38   ar
    16    38    39   ar
    17    39    40   ar
    18    40    41    1
    19    40    42   ar
    20    42    43   ar
    21    32    33   ar
    22    33    34    1
    23     1     4    1
    24     4     5    1
    25     4     6    1
    26     4     7    1
    27     9    10   am
    28    10    11    2
    29    10    12    1
    30    12    13   ar
    31    13    14   ar
    32    14    15   ar
    33    15    16   ar
    34    16    17   ar
    35    17    18    1
    36    18    19    1
    37    18    20    2
    38    18    21    2
    39    33    29   ar
    40    17    12   ar
    41    43    37   ar
    42     2     3    1
    43    25    28    1
    44    34    35    1
    45    34    36    1
@<TRIPOS>MOLECULE
*****
 43 45 0 0 0
SMALL
GASTEIGER

@<TRIPOS>ATOM
      1 C          63.4013   87.0141   16.1571 C.3     1  UNL1        0.2120
      2 O          63.8985   87.3161   14.7745 O.3     1  UNL1       -0.3763
      3 H          63.7912   88.2627   14.5919 H       1  UNL1        0.2107
      4 C          62.9041   86.7121   17.5397 C.3     1  UNL1        0.4226
      5 F          62.4069   86.4102   18.9223 F       1  UNL1       -0.1675
      6 F          62.6055   85.3021   17.1243 F       1  UNL1       -0.1675
      7 F          63.2027   88.1222   17.9551 F       1  UNL1       -0.1675
      8 C          63.7530   85.5684   15.9678 C.3     1  UNL1        0.1307
      9 N          63.9969   85.0302   14.5890 N.am    1  UNL1       -0.2733
     10 C          62.8427   84.5723   13.7475 C.2     1  UNL1        0.2503
     11 O          61.4445   84.6527   14.2847 O.2     1  UNL1       -0.2699
     12 C          63.0867   84.0341   12.3689 C.ar    1  UNL1        0.0706
     13 C          63.1833   84.9734   11.2033 C.ar    1  UNL1        0.0058
     14 C          63.4273   84.4352    9.8246 C.ar    1  UNL1        0.0002
     15 C          63.5747   82.9577    9.6114 C.ar    1  UNL1        0.0013
     16 C          63.4782   82.0185   10.7770 C.ar    1  UNL1        0.0185
     17 C          63.2341   82.5567   12.1557 C.ar    1  UNL1        0.1101
     18 S          63.1376   81.6175   13.3213 S.O2    1  UNL1        0.0106
     19 C          63.0410   80.6782   14.4869 C.3     1  UNL1        0.1816
     20 O          61.6511   81.5403   13.1359 O.2     1  UNL1       -0.1686
     21 O          64.6241   81.6947   13.5067 O.2     1  UNL1       -0.1686
     22 C          66.5613   85.2405   14.9494 C.3     1  UNL1        0.0233
     23 C          65.3952   84.9498   14.0518 C.3     1  UNL1        0.0939
     24 C          63.0495   88.4600   16.3464 C.3     1  UNL1        0.1269
     25 N          64.0013   89.5285   15.8966 N.am    1  UNL1       -0.2982
     26 C          63.7932   90.2113   14.5773 C.2     1  UNL1        0.2502
     27 O          62.6333   89.8256   13.7078 O.2     1  UNL1       -0.2700
     28 H          64.7625   89.7817   16.4672 H       1  UNL1        0.1498
     29 C          64.7449   91.2799   14.1275 C.ar    1  UNL1        0.1053
     30 C          65.7363   91.9991   14.9934 C.ar    1  UNL1        0.1278
     31 N          66.4765   92.9806   14.1338 N.ar    1  UNL1       -0.1622
     32 N          65.9426   92.8679   12.7366 N.ar    1  UNL1       -0.2163
     33 C          64.8724   91.8168   12.7327 C.ar    1  UNL1        0.1327
     34 N          64.0705   91.3795   11.5429 N.pl3   1  UNL1       -0.3424
     35 H          64.2281   91.7938   10.6638 H       1  UNL1        0.1437
     36 H          63.3867   90.6781   11.6410 H       1  UNL1        0.1437
     37 C          66.3988   93.6662   11.5514 C.ar    1  UNL1        0.0843
     38 C          66.2120   95.1543   11.5326 C.ar    1  UNL1        0.0215
     39 C          66.6681   95.9525   10.3474 C.ar    1  UNL1        0.0312
     40 C          67.3111   95.2625    9.1809 C.ar    1  UNL1        0.1402
     41 F          67.7673   96.0608    7.9957 F       1  UNL1       -0.2042
     42 C          67.4979   93.7743    9.1997 C.ar    1  UNL1        0.0312
     43 C          67.0417   92.9762   10.3850 C.ar    1  UNL1        0.0215
@<TRIPOS>BOND
     1    22    23    1
     2    23     9    1
     3     9     8    1
     4     8     1    1
     5     1     2    1
     6     1    24    1
     7    24    25    1
     8    25    26   am
     9    26    27    2
    10    26    29    1
    11    29    30   ar
    12    30    31   ar
    13    31    32   ar
    14    32    37    1
    15    37    38   ar
    16    38    39   ar
    17    39    40   ar
    18    40    41    1
    19    40    42   ar
    20    42    43   ar
    21    32    33   ar
    22    33    34    1
    23     1     4    1
    24     4     5    1
    25     4     6    1
    26     4     7    1
    27     9    10   am
    28    10    11    2
    29    10    12    1
    30    12    13   ar
    31    13    14   ar
    32    14    15   ar
    33    15    16   ar
    34    16    17   ar
    35    17    18    1
    36    18    19    1
    37    18    20    2
    38    18    21    2
    39    33    29   ar
    40    17    12   ar
    41    43    37   ar
    42     2     3    1
    43    25    28    1
    44    34    35    1
    45    34    36    1
@<TRIPOS>MOLECULE
*****
 43 45 0 0 0
SMALL
GASTEIGER

@<TRIPOS>ATOM
      1 C          63.9964   90.9664   14.3561 C.3     1  UNL1        0.2120
      2 O          62.8126   90.4980   13.5628 O.3     1  UNL1       -0.3763
      3 H          62.5205   89.6354   13.8966 H       1  UNL1        0.2107
      4 C          65.1802   91.4348   15.1493 C.3     1  UNL1        0.4226
      5 F          66.3639   91.9032   15.9426 F       1  UNL1       -0.1675
      6 F          64.2598   92.0945   16.1331 F       1  UNL1       -0.1675
      7 F          66.1005   90.7751   14.1656 F       1  UNL1       -0.1675
      8 C          64.0570   92.2157   13.5281 C.3     1  UNL1        0.1307
      9 N          64.8872   92.2482   12.2792 N.am    1  UNL1       -0.2733
     10 C          66.0197   93.2241   12.1566 C.2     1  UNL1        0.2503
     11 O          66.3220   94.1676   13.2829 O.2     1  UNL1       -0.2699
     12 C          66.8498   93.2566   10.9077 C.ar    1  UNL1        0.0706
     13 C          67.7178   92.0856   10.5534 C.ar    1  UNL1        0.0058
     14 C          68.5479   92.1181    9.3045 C.ar    1  UNL1        0.0002
     15 C          68.5102   93.3216    8.4098 C.ar    1  UNL1        0.0013
     16 C          67.6423   94.4925    8.7643 C.ar    1  UNL1        0.0185
     17 C          66.8121   94.4600   10.0131 C.ar    1  UNL1        0.1101
     18 S          65.9442   95.6310   10.3675 S.O2    1  UNL1        0.0106
     19 C          65.0762   96.8020   10.7218 C.3     1  UNL1        0.1816
     20 O          67.1579   96.4008   10.7967 O.2     1  UNL1       -0.1686
     21 O          64.7304   94.8613    9.9382 O.2     1  UNL1       -0.1686
     22 C          63.3972   91.5475   10.2694 C.3     1  UNL1        0.0233
     23 C          64.5849   91.3047   11.1529 C.3     1  UNL1        0.0939
     24 C          63.9358   89.7171   15.1840 C.3     1  UNL1        0.1269
     25 N          64.3327   88.4004   14.5851 N.am    1  UNL1       -0.2982
     26 C          63.9485   87.1203   15.2661 C.2     1  UNL1        0.2502
     27 O          63.1673   87.1570   16.5461 O.2     1  UNL1       -0.2700
     28 H          64.8455   88.3763   13.7450 H       1  UNL1        0.1498
     29 C          64.3454   85.8037   14.6672 C.ar    1  UNL1        0.1053
     30 C          65.5842   85.0237   14.9946 C.ar    1  UNL1        0.1278
     31 N          65.5776   83.7737   14.1654 N.ar    1  UNL1       -0.1622
     32 N          64.3348   83.7811   13.3256 N.ar    1  UNL1       -0.2163
     33 C          63.5732   85.0357   13.6357 C.ar    1  UNL1        0.1327
     34 N          62.2686   85.4496   13.0221 N.pl3   1  UNL1       -0.3424
     35 H          61.8367   84.8750   12.3494 H       1  UNL1        0.1437
     36 H          61.8442   86.2959   13.2920 H       1  UNL1        0.1437
     37 C          63.9253   82.7202   12.3473 C.ar    1  UNL1        0.0843
     38 C          64.2199   82.8928   10.8867 C.ar    1  UNL1        0.0215
     39 C          63.8105   81.8320    9.9086 C.ar    1  UNL1        0.0312
     40 C          63.1064   80.5985   10.3910 C.ar    1  UNL1        0.1402
     41 F          62.6969   79.5376    9.4127 F       1  UNL1       -0.2042
     42 C          62.8118   80.4258   11.8516 C.ar    1  UNL1        0.0312
     43 C          63.2212   81.4867   12.8297 C.ar    1  UNL1        0.0215
@<TRIPOS>BOND
     1    22    23    1
     2    23     9    1
     3     9     8    1
     4     8     1    1
     5     1     2    1
     6     1    24    1
     7    24    25    1
     8    25    26   am
     9    26    27    2
    10    26    29    1
    11    29    30   ar
    12    30    31   ar
    13    31    32   ar
    14    32    37    1
    15    37    38   ar
    16    38    39   ar
    17    39    40   ar
    18    40    41    1
    19    40    42   ar
    20    42    43   ar
    21    32    33   ar
    22    33    34    1
    23     1     4    1
    24     4     5    1
    25     4     6    1
    26     4     7    1
    27     9    10   am
    28    10    11    2
    29    10    12    1
    30    12    13   ar
    31    13    14   ar
    32    14    15   ar
    33    15    16   ar
    34    16    17   ar
    35    17    18    1
    36    18    19    1
    37    18    20    2
    38    18    21    2
    39    33    29   ar
    40    17    12   ar
    41    43    37   ar
    42     2     3    1
    43    25    28    1
    44    34    35    1
    45    34    36    1
@<TRIPOS>MOLECULE
*****
 43 45 0 0 0
SMALL
GASTEIGER

@<TRIPOS>ATOM
      1 C          61.9912   87.2710   11.1284 C.3     1  UNL1        0.2120
      2 O          63.1207   86.7552   11.9700 O.3     1  UNL1       -0.3763
      3 H          63.3037   87.3837   12.6858 H       1  UNL1        0.2107
      4 C          60.8618   87.7868   10.2868 C.3     1  UNL1        0.4226
      5 F          59.7324   88.3026    9.4452 F       1  UNL1       -0.1675
      6 F          59.9660   87.7883   11.4900 F       1  UNL1       -0.1675
      7 F          61.7576   87.7854    9.0836 F       1  UNL1       -0.1675
      8 C          62.0902   86.0578   10.2519 C.3     1  UNL1        0.1307
      9 N          62.5495   84.7514   10.8286 N.am    1  UNL1       -0.2733
     10 C          62.1661   84.3735   12.2287 C.2     1  UNL1        0.2503
     11 O          61.3235   85.3020   13.0521 O.2     1  UNL1       -0.2699
     12 C          62.6253   83.0671   12.8053 C.ar    1  UNL1        0.0706
     13 C          62.2244   81.7772   12.1531 C.ar    1  UNL1        0.0058
     14 C          62.6836   80.4708   12.7298 C.ar    1  UNL1        0.0002
     15 C          63.5439   80.4543   13.9586 C.ar    1  UNL1        0.0013
     16 C          63.9447   81.7444   14.6106 C.ar    1  UNL1        0.0185
     17 C          63.4855   83.0507   14.0340 C.ar    1  UNL1        0.1101
     18 S          63.8864   84.3407   14.6862 S.O2    1  UNL1        0.0106
     19 C          64.2874   85.6307   15.3383 C.3     1  UNL1        0.1816
     20 O          64.9701   84.5203   13.6647 O.2     1  UNL1       -0.1686
     21 O          62.8028   84.1611   15.7076 O.2     1  UNL1       -0.1686
     22 C          64.7339   83.3814   10.5097 C.3     1  UNL1        0.0233
     23 C          63.3920   83.8230   10.0052 C.3     1  UNL1        0.0939
     24 C          61.8922   88.4843   12.0049 C.3     1  UNL1        0.1269
     25 N          62.8426   89.6286   11.8119 N.am    1  UNL1       -0.2982
     26 C          63.5786   90.1988   12.9880 C.2     1  UNL1        0.2502
     27 O          63.3643   89.6247   14.3571 O.2     1  UNL1       -0.2700
     28 H          62.9833   90.0054   10.9133 H       1  UNL1        0.1498
     29 C          64.5290   91.3431   12.7949 C.ar    1  UNL1        0.1053
     30 C          65.3452   92.0019   13.8673 C.ar    1  UNL1        0.1278
     31 N          66.1507   93.0955   13.2308 N.ar    1  UNL1       -0.1622
     32 N          65.8324   93.1126   11.7651 N.ar    1  UNL1       -0.2163
     33 C          64.8301   92.0296   11.4957 C.ar    1  UNL1        0.1327
     34 N          64.2337   91.6923   10.1614 N.pl3   1  UNL1       -0.3424
     35 H          64.4958   92.2032    9.3617 H       1  UNL1        0.1437
     36 H          63.5801   90.9600   10.0853 H       1  UNL1        0.1437
     37 C          66.4142   94.0485   10.7473 C.ar    1  UNL1        0.0843
     38 C          66.1313   95.5191   10.8325 C.ar    1  UNL1        0.0215
     39 C          66.7131   96.4549    9.8148 C.ar    1  UNL1        0.0312
     40 C          67.5777   95.9201    8.7119 C.ar    1  UNL1        0.1402
     41 F          68.1595   96.8559    7.6941 F       1  UNL1       -0.2042
     42 C          67.8606   94.4495    8.6267 C.ar    1  UNL1        0.0312
     43 C          67.2788   93.5137    9.6444 C.ar    1  UNL1        0.0215
@<TRIPOS>BOND
     1    22    23    1
     2    23     9    1
     3     9     8    1
     4     8     1    1
     5     1     2    1
     6     1    24    1
     7    24    25    1
     8    25    26   am
     9    26    27    2
    10    26    29    1
    11    29    30   ar
    12    30    31   ar
    13    31    32   ar
    14    32    37    1
    15    37    38   ar
    16    38    39   ar
    17    39    40   ar
    18    40    41    1
    19    40    42   ar
    20    42    43   ar
    21    32    33   ar
    22    33    34    1
    23     1     4    1
    24     4     5    1
    25     4     6    1
    26     4     7    1
    27     9    10   am
    28    10    11    2
    29    10    12    1
    30    12    13   ar
    31    13    14   ar
    32    14    15   ar
    33    15    16   ar
    34    16    17   ar
    35    17    18    1
    36    18    19    1
    37    18    20    2
    38    18    21    2
    39    33    29   ar
    40    17    12   ar
    41    43    37   ar
    42     2     3    1
    43    25    28    1
    44    34    35    1
    45    34    36    1
@<TRIPOS>MOLECULE
*****
 43 45 0 0 0
SMALL
GASTEIGER

@<TRIPOS>ATOM
      1 C          63.0433   90.1238   12.8460 C.3     1  UNL1        0.2120
      2 O          62.0721   88.9994   12.6399 O.3     1  UNL1       -0.3763
      3 H          62.2667   88.2851   13.2667 H       1  UNL1        0.2107
      4 C          64.0145   91.2483   13.0521 C.3     1  UNL1        0.4226
      5 F          64.9856   92.3727   13.2583 F       1  UNL1       -0.1675
      6 F          64.2684   91.2996   11.5747 F       1  UNL1       -0.1675
      7 F          63.7604   91.1969   14.5296 F       1  UNL1       -0.1675
      8 C          62.3808   90.8978   11.7452 C.3     1  UNL1        0.1307
      9 N          61.3723   90.2281   10.8594 N.am    1  UNL1       -0.2733
     10 C          61.8221   89.2408    9.8236 C.2     1  UNL1        0.2503
     11 O          63.2804   88.9230    9.6736 O.2     1  UNL1       -0.2699
     12 C          60.8136   88.5712    8.9379 C.ar    1  UNL1        0.0706
     13 C          59.8553   89.3985    8.1333 C.ar    1  UNL1        0.0058
     14 C          58.8468   88.7289    7.2476 C.ar    1  UNL1        0.0002
     15 C          58.7966   87.2318    7.1663 C.ar    1  UNL1        0.0013
     16 C          59.7550   86.4046    7.9709 C.ar    1  UNL1        0.0185
     17 C          60.7634   87.0742    8.8566 C.ar    1  UNL1        0.1101
     18 S          61.7218   86.2469    9.6611 S.O2    1  UNL1        0.0106
     19 C          62.6801   85.4196   10.4657 C.3     1  UNL1        0.1816
     20 O          62.4865   85.9191    8.4131 O.2     1  UNL1       -0.1686
     21 O          60.9570   86.5747   10.9092 O.2     1  UNL1       -0.1686
     22 C          59.0968   89.8434   12.0528 C.3     1  UNL1        0.0233
     23 C          59.9140   90.5459   11.0094 C.3     1  UNL1        0.0939
     24 C          63.7058   89.3498   13.9469 C.3     1  UNL1        0.1269
     25 N          63.8777   87.8650   13.8215 N.am    1  UNL1       -0.2982
     26 C          63.7535   86.9905   15.0339 C.2     1  UNL1        0.2502
     27 O          63.4574   87.6009   16.3717 O.2     1  UNL1       -0.2700
     28 H          64.0720   87.4644   12.9434 H       1  UNL1        0.1498
     29 C          63.9253   85.5057   14.9084 C.ar    1  UNL1        0.1053
     30 C          64.7202   84.6291   15.8303 C.ar    1  UNL1        0.1278
     31 N          64.6186   83.2184   15.3307 N.ar    1  UNL1       -0.1622
     32 N          63.7610   83.2231   14.1001 N.ar    1  UNL1       -0.2163
     33 C          63.3326   84.6367   13.8391 C.ar    1  UNL1        0.1327
     34 N          62.4639   85.1001   12.7075 N.pl3   1  UNL1       -0.3424
     35 H          62.1210   84.4503   12.0521 H       1  UNL1        0.1437
     36 H          62.2365   86.0540   12.6201 H       1  UNL1        0.1437
     37 C          63.3960   82.0246   13.2752 C.ar    1  UNL1        0.0843
     38 C          63.6398   82.0303   11.7952 C.ar    1  UNL1        0.0215
     39 C          63.2748   80.8318   10.9704 C.ar    1  UNL1        0.0312
     40 C          62.6659   79.6277   11.6256 C.ar    1  UNL1        0.1402
     41 F          62.3008   78.4292   10.8007 F       1  UNL1       -0.2042
     42 C          62.4220   79.6220   13.1056 C.ar    1  UNL1        0.0312
     43 C          62.7870   80.8205   13.9304 C.ar    1  UNL1        0.0215
@<TRIPOS>BOND
     1    22    23    1
     2    23     9    1
     3     9     8    1
     4     8     1    1
     5     1     2    1
     6     1    24    1
     7    24    25    1
     8    25    26   am
     9    26    27    2
    10    26    29    1
    11    29    30   ar
    12    30    31   ar
    13    31    32   ar
    14    32    37    1
    15    37    38   ar
    16    38    39   ar
    17    39    40   ar
    18    40    41    1
    19    40    42   ar
    20    42    43   ar
    21    32    33   ar
    22    33    34    1
    23     1     4    1
    24     4     5    1
    25     4     6    1
    26     4     7    1
    27     9    10   am
    28    10    11    2
    29    10    12    1
    30    12    13   ar
    31    13    14   ar
    32    14    15   ar
    33    15    16   ar
    34    16    17   ar
    35    17    18    1
    36    18    19    1
    37    18    20    2
    38    18    21    2
    39    33    29   ar
    40    17    12   ar
    41    43    37   ar
    42     2     3    1
    43    25    28    1
    44    34    35    1
    45    34    36    1
@<TRIPOS>MOLECULE
*****
 43 45 0 0 0
SMALL
GASTEIGER

@<TRIPOS>ATOM
      1 C          59.4558   93.0898   -0.4939 C.3     1  UNL1        0.2120
      2 O          58.0315   92.7466   -0.1721 O.3     1  UNL1       -0.3763
      3 H          57.8840   92.8405    0.7821 H       1  UNL1        0.2107
      4 C          60.8801   93.4330   -0.8158 C.3     1  UNL1        0.4226
      5 F          62.3044   93.7762   -1.1377 F       1  UNL1       -0.1675
      6 F          60.5613   94.8916   -0.6712 F       1  UNL1       -0.1675
      7 F          61.1989   91.9744   -0.9604 F       1  UNL1       -0.1675
      8 C          59.1942   92.8146   -1.9450 C.3     1  UNL1        0.1307
      9 N          58.2694   93.7039   -2.7222 N.am    1  UNL1       -0.2733
     10 C          56.8621   93.2643   -2.9982 C.2     1  UNL1        0.2503
     11 O          56.3795   91.9353   -2.4970 O.2     1  UNL1       -0.2699
     12 C          55.9373   94.1535   -3.7753 C.ar    1  UNL1        0.0706
     13 C          55.1597   95.2256   -3.0709 C.ar    1  UNL1        0.0058
     14 C          54.2350   96.1149   -3.8481 C.ar    1  UNL1        0.0002
     15 C          54.0877   95.9321   -5.3297 C.ar    1  UNL1        0.0013
     16 C          54.8653   94.8600   -6.0339 C.ar    1  UNL1        0.0185
     17 C          55.7900   93.9707   -5.2568 C.ar    1  UNL1        0.1101
     18 S          56.5676   92.8987   -5.9612 S.O2    1  UNL1        0.0106
     19 C          57.3451   91.8266   -6.6655 C.3     1  UNL1        0.1816
     20 O          57.6460   93.8910   -6.2811 O.2     1  UNL1       -0.1686
     21 O          55.4891   91.9063   -5.6413 O.2     1  UNL1       -0.1686
     22 C          60.0301   95.1212   -4.0033 C.3     1  UNL1        0.0233
     23 C          58.7519   95.0329   -3.2233 C.3     1  UNL1        0.0939
     24 C          59.7175   93.3651    0.9572 C.3     1  UNL1        0.1269
     25 N          59.2676   92.3847    1.9995 N.am    1  UNL1       -0.2982
     26 C          59.3177   92.7578    3.4515 C.2     1  UNL1        0.2502
     27 O          59.8177   94.1114    3.8612 O.2     1  UNL1       -0.2700
     28 H          58.9394   91.4963    1.7306 H       1  UNL1        0.1498
     29 C          58.8678   91.7775    4.4938 C.ar    1  UNL1        0.1053
     30 C          57.4484   91.5106    4.8991 C.ar    1  UNL1        0.1278
     31 N          57.4616   90.4600    5.9696 N.ar    1  UNL1       -0.1622
     32 N          58.8892   90.0775    6.2260 N.ar    1  UNL1       -0.2163
     33 C          59.7582   90.8917    5.3139 C.ar    1  UNL1        0.1327
     34 N          61.2549   90.8309    5.2356 N.pl3   1  UNL1       -0.3424
     35 H          61.7537   90.2138    5.8185 H       1  UNL1        0.1437
     36 H          61.7386   91.4081    4.6015 H       1  UNL1        0.1437
     37 C          59.3644   89.0595    7.2200 C.ar    1  UNL1        0.0843
     38 C          59.0596   87.6061    7.0089 C.ar    1  UNL1        0.0215
     39 C          59.5347   86.5881    8.0029 C.ar    1  UNL1        0.0312
     40 C          60.3147   87.0236    9.2079 C.ar    1  UNL1        0.1402
     41 F          60.7899   86.0056   10.2018 F       1  UNL1       -0.2042
     42 C          60.6195   88.4771    9.4189 C.ar    1  UNL1        0.0312
     43 C          60.1443   89.4950    8.4249 C.ar    1  UNL1        0.0215
@<TRIPOS>BOND
     1    22    23    1
     2    23     9    1
     3     9     8    1
     4     8     1    1
     5     1     2    1
     6     1    24    1
     7    24    25    1
     8    25    26   am
     9    26    27    2
    10    26    29    1
    11    29    30   ar
    12    30    31   ar
    13    31    32   ar
    14    32    37    1
    15    37    38   ar
    16    38    39   ar
    17    39    40   ar
    18    40    41    1
    19    40    42   ar
    20    42    43   ar
    21    32    33   ar
    22    33    34    1
    23     1     4    1
    24     4     5    1
    25     4     6    1
    26     4     7    1
    27     9    10   am
    28    10    11    2
    29    10    12    1
    30    12    13   ar
    31    13    14   ar
    32    14    15   ar
    33    15    16   ar
    34    16    17   ar
    35    17    18    1
    36    18    19    1
    37    18    20    2
    38    18    21    2
    39    33    29   ar
    40    17    12   ar
    41    43    37   ar
    42     2     3    1
    43    25    28    1
    44    34    35    1
    45    34    36    1
@<TRIPOS>MOLECULE
*****
 43 45 0 0 0
SMALL
GASTEIGER

@<TRIPOS>ATOM
      1 C          60.0888   88.8064   10.3220 C.3     1  UNL1        0.2120
      2 O          60.0802   88.5735   11.8038 O.3     1  UNL1       -0.3763
      3 H          60.2823   89.4038   12.2627 H       1  UNL1        0.2107
      4 C          60.0975   89.0393    8.8402 C.3     1  UNL1        0.4226
      5 F          60.1062   89.2722    7.3584 F       1  UNL1       -0.1675
      6 F          61.4020   89.7695    8.9627 F       1  UNL1       -0.1675
      7 F          58.7930   88.3091    8.7177 F       1  UNL1       -0.1675
      8 C          59.7543   87.3623   10.0930 C.3     1  UNL1        0.1307
      9 N          60.8534   86.3554    9.9248 N.am    1  UNL1       -0.2733
     10 C          61.5774   85.8274   11.1277 C.2     1  UNL1        0.2503
     11 O          61.2025   86.3064   12.4988 O.2     1  UNL1       -0.2699
     12 C          62.6765   84.8205   10.9594 C.ar    1  UNL1        0.0706
     13 C          63.1759   84.4777    9.5872 C.ar    1  UNL1        0.0058
     14 C          64.2749   83.4708    9.4189 C.ar    1  UNL1        0.0002
     15 C          64.8746   82.8067   10.6229 C.ar    1  UNL1        0.0013
     16 C          64.3750   83.1496   11.9951 C.ar    1  UNL1        0.0185
     17 C          63.2760   84.1565   12.1634 C.ar    1  UNL1        0.1101
     18 S          62.7766   84.4994   13.5356 S.O2    1  UNL1        0.0106
     19 C          62.2771   84.8422   14.9079 C.3     1  UNL1        0.1816
     20 O          61.9534   83.2455   13.5493 O.2     1  UNL1       -0.1686
     21 O          63.5997   85.7533   13.5219 O.2     1  UNL1       -0.1686
     22 C          60.1994   85.8454    7.4626 C.3     1  UNL1        0.0233
     23 C          61.2283   85.8764    8.5536 C.3     1  UNL1        0.0939
     24 C          60.4234   90.2506   10.5509 C.3     1  UNL1        0.1269
     25 N          61.2801   90.6463   11.7169 N.am    1  UNL1       -0.2982
     26 C          62.5748   89.9333   11.9725 C.2     1  UNL1        0.2502
     27 O          63.0129   88.8246   11.0621 O.2     1  UNL1       -0.2700
     28 H          60.9926   91.3740   12.3144 H       1  UNL1        0.1498
     29 C          63.4315   90.3289   13.1385 C.ar    1  UNL1        0.1053
     30 C          63.2311   89.9058   14.5636 C.ar    1  UNL1        0.1278
     31 N          64.3147   90.5326   15.3900 N.ar    1  UNL1       -0.1622
     32 N          65.1848   91.3431   14.4756 N.ar    1  UNL1       -0.2163
     33 C          64.6389   91.2172   13.0842 C.ar    1  UNL1        0.1327
     34 N          65.2017   91.8658   11.8543 N.pl3   1  UNL1       -0.3424
     35 H          66.0023   92.4349   11.9204 H       1  UNL1        0.1437
     36 H          64.7705   91.7223   10.9809 H       1  UNL1        0.1437
     37 C          66.3893   92.1396   14.8815 C.ar    1  UNL1        0.0843
     38 C          66.4926   93.5879   14.5048 C.ar    1  UNL1        0.0215
     39 C          67.6970   94.3843   14.9107 C.ar    1  UNL1        0.0312
     40 C          68.7983   93.7326   15.6933 C.ar    1  UNL1        0.1402
     41 F          70.0029   94.5291   16.0991 F       1  UNL1       -0.2042
     42 C          68.6951   92.2844   16.0700 C.ar    1  UNL1        0.0312
     43 C          67.4906   91.4879   15.6641 C.ar    1  UNL1        0.0215
@<TRIPOS>BOND
     1    22    23    1
     2    23     9    1
     3     9     8    1
     4     8     1    1
     5     1     2    1
     6     1    24    1
     7    24    25    1
     8    25    26   am
     9    26    27    2
    10    26    29    1
    11    29    30   ar
    12    30    31   ar
    13    31    32   ar
    14    32    37    1
    15    37    38   ar
    16    38    39   ar
    17    39    40   ar
    18    40    41    1
    19    40    42   ar
    20    42    43   ar
    21    32    33   ar
    22    33    34    1
    23     1     4    1
    24     4     5    1
    25     4     6    1
    26     4     7    1
    27     9    10   am
    28    10    11    2
    29    10    12    1
    30    12    13   ar
    31    13    14   ar
    32    14    15   ar
    33    15    16   ar
    34    16    17   ar
    35    17    18    1
    36    18    19    1
    37    18    20    2
    38    18    21    2
    39    33    29   ar
    40    17    12   ar
    41    43    37   ar
    42     2     3    1
    43    25    28    1
    44    34    35    1
    45    34    36    1
@<TRIPOS>MOLECULE
*****
 43 45 0 0 0
SMALL
GASTEIGER

@<TRIPOS>ATOM
      1 C          58.8536   93.9815   -0.0026 C.3     1  UNL1        0.2120
      2 O          57.9608   92.7782   -0.0731 O.3     1  UNL1       -0.3763
      3 H          58.3777   92.0383    0.3955 H       1  UNL1        0.2107
      4 C          59.7465   95.1847    0.0679 C.3     1  UNL1        0.4226
      5 F          60.6394   96.3879    0.1383 F       1  UNL1       -0.1675
      6 F          58.5530   96.0795   -0.0899 F       1  UNL1       -0.1675
      7 F          60.9400   94.2899    0.2256 F       1  UNL1       -0.1675
      8 C          57.8541   94.7697   -0.7960 C.3     1  UNL1        0.1307
      9 N          57.0543   94.0985   -1.8731 N.am    1  UNL1       -0.2733
     10 C          57.7530   93.3664   -2.9802 C.2     1  UNL1        0.2503
     11 O          59.2515   93.3053   -3.0104 O.2     1  UNL1       -0.2699
     12 C          56.9532   92.6952   -4.0572 C.ar    1  UNL1        0.0706
     13 C          56.3275   91.3559   -3.8026 C.ar    1  UNL1        0.0058
     14 C          55.5277   90.6848   -4.8796 C.ar    1  UNL1        0.0002
     15 C          55.3536   91.3530   -6.2113 C.ar    1  UNL1        0.0013
     16 C          55.9793   92.6923   -6.4658 C.ar    1  UNL1        0.0185
     17 C          56.7791   93.3634   -5.3888 C.ar    1  UNL1        0.1101
     18 S          57.4048   94.7027   -5.6435 S.O2    1  UNL1        0.0106
     19 C          58.0305   96.0420   -5.8981 C.3     1  UNL1        0.1816
     20 O          56.2061   95.3766   -5.0443 O.2     1  UNL1       -0.1686
     21 O          58.6035   94.0288   -6.2426 O.2     1  UNL1       -0.1686
     22 C          54.8629   95.4716   -1.6236 C.3     1  UNL1        0.0233
     23 C          55.5559   94.1595   -1.8429 C.3     1  UNL1        0.0939
     24 C          59.8532   93.1932    0.7908 C.3     1  UNL1        0.1269
     25 N          59.3877   92.2662    1.8742 N.am    1  UNL1       -0.2982
     26 C          59.4038   92.7166    3.3050 C.2     1  UNL1        0.2502
     27 O          59.8855   94.0941    3.6522 O.2     1  UNL1       -0.2700
     28 H          59.0716   91.3621    1.6463 H       1  UNL1        0.1498
     29 C          58.9383   91.7896    4.3884 C.ar    1  UNL1        0.1053
     30 C          57.5185   91.5931    4.8310 C.ar    1  UNL1        0.1278
     31 N          57.5136   90.5783    5.9356 N.ar    1  UNL1       -0.1622
     32 N          58.9302   90.1476    6.1757 N.ar    1  UNL1       -0.2163
     33 C          59.8107   90.8962    5.2195 C.ar    1  UNL1        0.1327
     34 N          61.3018   90.7730    5.1131 N.pl3   1  UNL1       -0.3424
     35 H          61.7883   90.1558    5.7060 H       1  UNL1        0.1437
     36 H          61.7940   91.3094    4.4503 H       1  UNL1        0.1437
     37 C          59.3862   89.1444    7.1934 C.ar    1  UNL1        0.0843
     38 C          59.0221   87.6978    7.0360 C.ar    1  UNL1        0.0215
     39 C          59.4782   86.6947    8.0537 C.ar    1  UNL1        0.0312
     40 C          60.2984   87.1381    9.2287 C.ar    1  UNL1        0.1402
     41 F          60.7545   86.1349   10.2464 F       1  UNL1       -0.2042
     42 C          60.6625   88.5847    9.3861 C.ar    1  UNL1        0.0312
     43 C          60.2064   89.5878    8.3684 C.ar    1  UNL1        0.0215
@<TRIPOS>BOND
     1    22    23    1
     2    23     9    1
     3     9     8    1
     4     8     1    1
     5     1     2    1
     6     1    24    1
     7    24    25    1
     8    25    26   am
     9    26    27    2
    10    26    29    1
    11    29    30   ar
    12    30    31   ar
    13    31    32   ar
    14    32    37    1
    15    37    38   ar
    16    38    39   ar
    17    39    40   ar
    18    40    41    1
    19    40    42   ar
    20    42    43   ar
    21    32    33   ar
    22    33    34    1
    23     1     4    1
    24     4     5    1
    25     4     6    1
    26     4     7    1
    27     9    10   am
    28    10    11    2
    29    10    12    1
    30    12    13   ar
    31    13    14   ar
    32    14    15   ar
    33    15    16   ar
    34    16    17   ar
    35    17    18    1
    36    18    19    1
    37    18    20    2
    38    18    21    2
    39    33    29   ar
    40    17    12   ar
    41    43    37   ar
    42     2     3    1
    43    25    28    1
    44    34    35    1
    45    34    36    1
@<TRIPOS>MOLECULE
*****
 43 45 0 0 0
SMALL
GASTEIGER

@<TRIPOS>ATOM
      1 C          61.7972   86.8929    9.8676 C.3     1  UNL1        0.2120
      2 O          63.1046   86.8835   10.6029 O.3     1  UNL1       -0.3763
      3 H          63.2000   87.7088   11.1035 H       1  UNL1        0.2107
      4 C          60.4898   86.9023    9.1324 C.3     1  UNL1        0.4226
      5 F          59.1824   86.9117    8.3972 F       1  UNL1       -0.1675
      6 F          61.1453   86.2374    7.9584 F       1  UNL1       -0.1675
      7 F          59.8343   87.5671   10.3064 F       1  UNL1       -0.1675
      8 C          62.1030   85.5360    9.3064 C.3     1  UNL1        0.1307
      9 N          62.5572   84.4331   10.2161 N.am    1  UNL1       -0.2733
     10 C          62.1532   84.4381   11.6606 C.2     1  UNL1        0.2503
     11 O          61.2951   85.5460   12.1956 O.2     1  UNL1       -0.2699
     12 C          62.6074   83.3352   12.5702 C.ar    1  UNL1        0.0706
     13 C          62.2453   81.9124   12.2628 C.ar    1  UNL1        0.0058
     14 C          62.6994   80.8095   13.1724 C.ar    1  UNL1        0.0002
     15 C          63.5159   81.1294   14.3895 C.ar    1  UNL1        0.0013
     16 C          63.8780   82.5522   14.6968 C.ar    1  UNL1        0.0185
     17 C          63.4238   83.6551   13.7873 C.ar    1  UNL1        0.1101
     18 S          63.7860   85.0779   14.0947 S.O2    1  UNL1        0.0106
     19 C          64.1481   86.5007   14.4021 C.3     1  UNL1        0.1816
     20 O          65.0295   84.9402   13.2672 O.2     1  UNL1       -0.1686
     21 O          62.5424   85.2157   14.9222 O.2     1  UNL1       -0.1686
     22 C          64.7436   83.0330   10.3139 C.3     1  UNL1        0.0233
     23 C          63.4154   83.3251    9.6811 C.3     1  UNL1        0.0939
     24 C          61.4913   88.2499   10.4289 C.3     1  UNL1        0.1269
     25 N          62.5947   89.2474   10.6228 N.am    1  UNL1       -0.2982
     26 C          62.7678   89.9257   11.9494 C.2     1  UNL1        0.2502
     27 O          61.8377   89.6066   13.0821 O.2     1  UNL1       -0.2700
     28 H          63.2052   89.4569    9.8794 H       1  UNL1        0.1498
     29 C          63.8712   90.9232   12.1434 C.ar    1  UNL1        0.1053
     30 C          64.1976   92.0660   11.2281 C.ar    1  UNL1        0.1278
     31 N          65.3700   92.8021   11.8057 N.ar    1  UNL1       -0.1622
     32 N          65.7681   92.1144   13.0779 N.ar    1  UNL1       -0.2163
     33 C          64.8418   90.9532   13.2866 C.ar    1  UNL1        0.1327
     34 N          64.8795   89.9909   14.4366 N.pl3   1  UNL1       -0.3424
     35 H          65.5582   90.0935   15.1423 H       1  UNL1        0.1437
     36 H          64.2255   89.2567   14.4857 H       1  UNL1        0.1437
     37 C          66.8948   92.5172   13.9827 C.ar    1  UNL1        0.0843
     38 C          66.6284   93.4027   15.1637 C.ar    1  UNL1        0.0215
     39 C          67.7550   93.8055   16.0683 C.ar    1  UNL1        0.0312
     40 C          69.1481   93.3226   15.7920 C.ar    1  UNL1        0.1402
     41 F          70.2747   93.7254   16.6968 F       1  UNL1       -0.2042
     42 C          69.4144   92.4371   14.6110 C.ar    1  UNL1        0.0312
     43 C          68.2878   92.0343   13.7064 C.ar    1  UNL1        0.0215
@<TRIPOS>BOND
     1    22    23    1
     2    23     9    1
     3     9     8    1
     4     8     1    1
     5     1     2    1
     6     1    24    1
     7    24    25    1
     8    25    26   am
     9    26    27    2
    10    26    29    1
    11    29    30   ar
    12    30    31   ar
    13    31    32   ar
    14    32    37    1
    15    37    38   ar
    16    38    39   ar
    17    39    40   ar
    18    40    41    1
    19    40    42   ar
    20    42    43   ar
    21    32    33   ar
    22    33    34    1
    23     1     4    1
    24     4     5    1
    25     4     6    1
    26     4     7    1
    27     9    10   am
    28    10    11    2
    29    10    12    1
    30    12    13   ar
    31    13    14   ar
    32    14    15   ar
    33    15    16   ar
    34    16    17   ar
    35    17    18    1
    36    18    19    1
    37    18    20    2
    38    18    21    2
    39    33    29   ar
    40    17    12   ar
    41    43    37   ar
    42     2     3    1
    43    25    28    1
    44    34    35    1
    45    34    36    1
