@<TRIPOS>MOLECULE
*****
 33 36 0 0 0
SMALL
GASTEIGER

@<TRIPOS>ATOM
      1 C          61.7133   84.2604   10.5661 C.3     1  UNL1        0.0375
      2 C          62.3941   84.9901   11.6860 C.ar    1  UNL1        0.0474
      3 C          62.5728   86.4776   11.6127 C.ar    1  UNL1        0.0612
      4 C          63.2535   87.2074   12.7326 C.ar    1  UNL1        0.0695
      5 C          63.4323   88.6948   12.6592 C.ar    1  UNL1        0.0128
      6 C          64.1130   89.4245   13.7791 C.ar    1  UNL1        0.0350
      7 BR         64.2917   90.9121   13.7058 Br      1  UNL1       -0.0490
      8 C          64.6150   88.6667   14.9723 C.ar    1  UNL1        0.0128
      9 C          64.4363   87.1793   15.0456 C.ar    1  UNL1        0.0710
     10 C          63.7555   86.4496   13.9258 C.ar    1  UNL1        0.2367
     11 N          63.5768   84.9620   13.9991 N.ar    1  UNL1       -0.1622
     12 O          64.0788   84.2042   15.1923 O.co2   1  UNL1       -0.6189
     13 C          62.8961   84.2323   12.8792 C.ar    1  UNL1        0.2325
     14 C          62.7173   82.7448   12.9525 C.ar    1  UNL1        0.0644
     15 C          61.9585   82.1359   14.0943 C.ar    1  UNL1        0.0059
     16 C          61.7798   80.6485   14.1676 C.ar    1  UNL1        0.0002
     17 C          62.3598   79.7698   13.0992 C.ar    1  UNL1        0.0000
     18 C          63.1187   80.3787   11.9575 C.ar    1  UNL1        0.0002
     19 C          63.2974   81.8661   11.8842 C.ar    1  UNL1        0.0059
     20 C          62.0708   87.2354   10.4195 C.2     1  UNL1        0.2496
     21 O          63.0352   87.7150    9.3755 O.2     1  UNL1       -0.2698
     22 N          60.6044   87.5136   10.2702 N.am    1  UNL1       -0.2786
     23 H          59.9714   87.1988   10.9554 H       1  UNL1        0.1552
     24 C          60.1024   88.2714    9.0770 C.ar    1  UNL1        0.0784
     25 C          60.2780   89.7594    9.0053 C.ar    1  UNL1        0.0170
     26 C          59.7760   90.5172    7.8121 C.ar    1  UNL1        0.0025
     27 C          59.0984   89.7869    6.6906 C.ar    1  UNL1        0.0163
     28 C          58.9229   88.2990    6.7623 C.ar    1  UNL1        0.0320
     29 C          59.4249   87.5412    7.9555 C.ar    1  UNL1        0.1535
     30 F          59.2493   86.0532    8.0272 F       1  UNL1       -0.2029
     31 C          58.5964   90.5447    5.4974 C.2     1  UNL1        0.0729
     32 O          57.1215   90.6733    5.2567 O.co2   1  UNL1       -0.5446
     33 O          59.5694   91.1740    4.5448 O.co2   1  UNL1       -0.5446
@<TRIPOS>UNITY_ATOM_ATTR
11 1
charge 1
12 1
charge -1
32 1
charge -1
@<TRIPOS>BOND
     1     1     2    1
     2     2     3   ar
     3     3    20    1
     4    20    21    2
     5    20    22   am
     6    22    24    1
     7    24    25   ar
     8    25    26   ar
     9    26    27   ar
    10    27    31    1
    11    31    32   ar
    12    31    33   ar
    13    27    28   ar
    14    28    29   ar
    15    29    30    1
    16     3     4   ar
    17     4     5   ar
    18     5     6   ar
    19     6     7    1
    20     6     8   ar
    21     8     9   ar
    22     9    10   ar
    23    10    11   ar
    24    11    12    1
    25    11    13   ar
    26    13    14    1
    27    14    15   ar
    28    15    16   ar
    29    16    17   ar
    30    17    18   ar
    31    18    19   ar
    32    13     2   ar
    33    19    14   ar
    34    29    24   ar
    35    10     4   ar
    36    22    23    1
@<TRIPOS>MOLECULE
*****
 33 36 0 0 0
SMALL
GASTEIGER

@<TRIPOS>ATOM
      1 C          64.6744   92.0945    9.9618 C.3     1  UNL1        0.0375
      2 C          64.8005   92.1206   11.4564 C.ar    1  UNL1        0.0474
      3 C          64.1207   91.0711   12.2848 C.ar    1  UNL1        0.0612
      4 C          64.2468   91.0972   13.7793 C.ar    1  UNL1        0.0695
      5 C          63.5669   90.0478   14.6078 C.ar    1  UNL1        0.0128
      6 C          63.6930   90.0739   16.1022 C.ar    1  UNL1        0.0350
      7 BR         63.0131   89.0244   16.9307 Br      1  UNL1       -0.0490
      8 C          64.4990   91.1494   16.7682 C.ar    1  UNL1        0.0128
      9 C          65.1789   92.1989   15.9397 C.ar    1  UNL1        0.0710
     10 C          65.0528   92.1728   14.4453 C.ar    1  UNL1        0.2367
     11 N          65.7327   93.2223   13.6168 N.ar    1  UNL1       -0.1622
     12 O          66.5387   94.2978   14.2828 O.co2   1  UNL1       -0.6189
     13 C          65.6065   93.1962   12.1224 C.ar    1  UNL1        0.2325
     14 C          66.2864   94.2456   11.2938 C.ar    1  UNL1        0.0644
     15 C          66.0115   95.6978   11.5498 C.ar    1  UNL1        0.0059
     16 C          66.6913   96.7473   10.7214 C.ar    1  UNL1        0.0002
     17 C          67.6461   96.3446    9.6369 C.ar    1  UNL1        0.0000
     18 C          67.9211   94.8924    9.3809 C.ar    1  UNL1        0.0002
     19 C          67.2413   93.8429   10.2094 C.ar    1  UNL1        0.0059
     20 C          63.3147   89.9956   11.6188 C.2     1  UNL1        0.2496
     21 O          63.1843   88.6477   12.2641 O.2     1  UNL1       -0.2698
     22 N          62.6390   90.2678   10.3076 N.am    1  UNL1       -0.2786
     23 H          62.7245   91.1525    9.8841 H       1  UNL1        0.1552
     24 C          61.8330   89.1923    9.6416 C.ar    1  UNL1        0.0784
     25 C          62.4665   87.8715    9.3188 C.ar    1  UNL1        0.0170
     26 C          61.6605   86.7959    8.6528 C.ar    1  UNL1        0.0025
     27 C          60.2210   87.0412    8.3096 C.ar    1  UNL1        0.0163
     28 C          59.5875   88.3619    8.6325 C.ar    1  UNL1        0.0320
     29 C          60.3935   89.4375    9.2985 C.ar    1  UNL1        0.1535
     30 F          59.7600   90.7583    9.6213 F       1  UNL1       -0.2029
     31 C          59.4150   85.9656    7.6437 C.2     1  UNL1        0.0729
     32 O          60.1074   84.8456    6.9253 O.co2   1  UNL1       -0.5446
     33 O          57.9165   86.0101    7.6961 O.co2   1  UNL1       -0.5446
@<TRIPOS>UNITY_ATOM_ATTR
11 1
charge 1
12 1
charge -1
32 1
charge -1
@<TRIPOS>BOND
     1     1     2    1
     2     2     3   ar
     3     3    20    1
     4    20    21    2
     5    20    22   am
     6    22    24    1
     7    24    25   ar
     8    25    26   ar
     9    26    27   ar
    10    27    31    1
    11    31    32   ar
    12    31    33   ar
    13    27    28   ar
    14    28    29   ar
    15    29    30    1
    16     3     4   ar
    17     4     5   ar
    18     5     6   ar
    19     6     7    1
    20     6     8   ar
    21     8     9   ar
    22     9    10   ar
    23    10    11   ar
    24    11    12    1
    25    11    13   ar
    26    13    14    1
    27    14    15   ar
    28    15    16   ar
    29    16    17   ar
    30    17    18   ar
    31    18    19   ar
    32    13     2   ar
    33    19    14   ar
    34    29    24   ar
    35    10     4   ar
    36    22    23    1
@<TRIPOS>MOLECULE
*****
 33 36 0 0 0
SMALL
GASTEIGER

@<TRIPOS>ATOM
      1 C          63.4112   93.1747   -3.4697 C.3     1  UNL1        0.0375
      2 C          62.3952   94.0263   -4.1717 C.ar    1  UNL1        0.0474
      3 C          61.0646   94.2883   -3.5307 C.ar    1  UNL1        0.0612
      4 C          60.0486   95.1399   -4.2327 C.ar    1  UNL1        0.0695
      5 C          58.7181   95.4020   -3.5918 C.ar    1  UNL1        0.0128
      6 C          57.7022   96.2535   -4.2938 C.ar    1  UNL1        0.0350
      7 BR         56.3715   96.5156   -3.6528 Br      1  UNL1       -0.0490
      8 C          58.0169   96.8429   -5.6367 C.ar    1  UNL1        0.0128
      9 C          59.3474   96.5809   -6.2777 C.ar    1  UNL1        0.0710
     10 C          60.3633   95.7294   -5.5757 C.ar    1  UNL1        0.2367
     11 N          61.6940   95.4673   -6.2166 N.ar    1  UNL1       -0.1622
     12 O          62.0087   96.0568   -7.5596 O.co2   1  UNL1       -0.6189
     13 C          62.7099   94.6158   -5.5146 C.ar    1  UNL1        0.2325
     14 C          64.0405   94.3537   -6.1556 C.ar    1  UNL1        0.0644
     15 C          65.1406   95.3671   -6.0414 C.ar    1  UNL1        0.0059
     16 C          66.4712   95.1050   -6.6823 C.ar    1  UNL1        0.0002
     17 C          66.7017   93.8296   -7.4373 C.ar    1  UNL1        0.0000
     18 C          65.6017   92.8162   -7.5515 C.ar    1  UNL1        0.0002
     19 C          64.2711   93.0783   -6.9106 C.ar    1  UNL1        0.0059
     20 C          60.7499   93.6989   -2.1878 C.2     1  UNL1        0.2496
     21 O          59.7744   92.5648   -2.0765 O.2     1  UNL1       -0.2698
     22 N          61.4107   94.2434   -0.9562 N.am    1  UNL1       -0.2786
     23 H          62.0510   94.9876   -1.0293 H       1  UNL1        0.1552
     24 C          61.0960   93.6539    0.3867 C.ar    1  UNL1        0.0784
     25 C          62.1635   92.9385    1.1606 C.ar    1  UNL1        0.0170
     26 C          61.8488   92.3490    2.5035 C.ar    1  UNL1        0.0025
     27 C          60.4667   92.4749    3.0726 C.ar    1  UNL1        0.0163
     28 C          59.3993   93.1903    2.2987 C.ar    1  UNL1        0.0320
     29 C          59.7139   93.7798    0.9558 C.ar    1  UNL1        0.1535
     30 F          58.6464   94.4951    0.1820 F       1  UNL1       -0.2029
     31 C          60.1520   91.8855    4.4155 C.2     1  UNL1        0.0729
     32 O          58.8081   92.1173    5.0401 O.co2   1  UNL1       -0.5446
     33 O          61.1813   91.0641    5.1339 O.co2   1  UNL1       -0.5446
@<TRIPOS>UNITY_ATOM_ATTR
11 1
charge 1
12 1
charge -1
32 1
charge -1
@<TRIPOS>BOND
     1     1     2    1
     2     2     3   ar
     3     3    20    1
     4    20    21    2
     5    20    22   am
     6    22    24    1
     7    24    25   ar
     8    25    26   ar
     9    26    27   ar
    10    27    31    1
    11    31    32   ar
    12    31    33   ar
    13    27    28   ar
    14    28    29   ar
    15    29    30    1
    16     3     4   ar
    17     4     5   ar
    18     5     6   ar
    19     6     7    1
    20     6     8   ar
    21     8     9   ar
    22     9    10   ar
    23    10    11   ar
    24    11    12    1
    25    11    13   ar
    26    13    14    1
    27    14    15   ar
    28    15    16   ar
    29    16    17   ar
    30    17    18   ar
    31    18    19   ar
    32    13     2   ar
    33    19    14   ar
    34    29    24   ar
    35    10     4   ar
    36    22    23    1
