@<TRIPOS>MOLECULE
*****
 16 18 0 0 0
SMALL
GASTEIGER

@<TRIPOS>ATOM
      1 O          64.0166   84.5785   15.2895 O.3     1  UNL1       -0.4724
      2 CL         64.6139   89.6048   14.1151 Cl      1  UNL1       -0.0805
      3 C          64.1040   88.5382   15.0383 C.ar    1  UNL1        0.0798
      4 C          63.3830   88.9180   16.2976 C.ar    1  UNL1        0.1104
      5 N          62.8731   87.8514   17.2208 N.ar    1  UNL1       -0.2383
      6 C          63.0843   86.4049   16.8848 C.ar    1  UNL1        0.1357
      7 C          63.8054   86.0250   15.6255 C.ar    1  UNL1        0.1585
      8 C          64.3152   87.0917   14.7023 C.ar    1  UNL1        0.0515
      9 C          62.8663   83.6179   15.3533 C.3     1  UNL1        0.2210
     10 C          62.7519   82.5164   14.3415 C.3     1  UNL1        0.0983
     11 N          62.3117   81.1091   14.6164 N.3     1  UNL1       -0.2955
     12 C          62.3454   80.3517   13.3220 C.3     1  UNL1        0.0686
     13 C          62.8064   81.2910   12.2472 C.3     1  UNL1        0.0172
     14 C          63.2811   82.4389   11.4063 C.3     1  UNL1        0.0029
     15 C          63.0576   82.6289   12.8773 C.3     1  UNL1        0.0195
     16 H          61.3635   81.1101   14.9923 H       1  UNL1        0.1233
@<TRIPOS>BOND
     1     2     3    1
     2     3     4   ar
     3     4     5   ar
     4     5     6   ar
     5     6     7   ar
     6     7     1    1
     7     1     9    1
     8    10     9    1
     9    10    11    1
    10    11    12    1
    11    13    12    1
    12    13    14    1
    13    15    14    1
    14     7     8   ar
    15     8     3   ar
    16    15    10    1
    17    15    13    1
    18    11    16    1
@<TRIPOS>MOLECULE
*****
 16 18 0 0 0
SMALL
GASTEIGER

@<TRIPOS>ATOM
      1 O          65.4126   93.1201   12.8575 O.3     1  UNL1       -0.4724
      2 CL         68.5650   92.1507    8.8422 Cl      1  UNL1       -0.0805
      3 C          67.7788   93.1224    9.6714 C.ar    1  UNL1        0.0798
      4 C          67.7826   94.5812    9.3222 C.ar    1  UNL1        0.1104
      5 N          66.9964   95.5529   10.1514 N.ar    1  UNL1       -0.2383
      6 C          66.2064   95.0659   11.3298 C.ar    1  UNL1        0.1357
      7 C          66.2026   93.6072   11.6790 C.ar    1  UNL1        0.1585
      8 C          66.9888   92.6354   10.8498 C.ar    1  UNL1        0.0515
      9 C          65.9753   92.0524   13.7481 C.3     1  UNL1        0.2210
     10 C          65.0571   91.2178   14.5910 C.3     1  UNL1        0.0983
     11 N          64.3000   91.6857   15.7985 N.3     1  UNL1       -0.2955
     12 C          63.5098   90.5259   16.3282 C.3     1  UNL1        0.0686
     13 C          63.7785   89.3413   15.4480 C.3     1  UNL1        0.0172
     14 C          64.2323   88.3561   14.4119 C.3     1  UNL1        0.0029
     15 C          64.7348   89.7690   14.3744 C.3     1  UNL1        0.0195
     16 H          63.6697   92.4445   15.5392 H       1  UNL1        0.1233
@<TRIPOS>BOND
     1     2     3    1
     2     3     4   ar
     3     4     5   ar
     4     5     6   ar
     5     6     7   ar
     6     7     1    1
     7     1     9    1
     8    10     9    1
     9    10    11    1
    10    11    12    1
    11    13    12    1
    12    13    14    1
    13    15    14    1
    14     7     8   ar
    15     8     3   ar
    16    15    10    1
    17    15    13    1
    18    11    16    1
@<TRIPOS>MOLECULE
*****
 16 18 0 0 0
SMALL
GASTEIGER

@<TRIPOS>ATOM
      1 O          63.4623   85.8743   15.2280 O.3     1  UNL1       -0.4724
      2 CL         64.5106   82.9308   11.0762 Cl      1  UNL1       -0.0805
      3 C          63.9680   83.0678   12.4679 C.ar    1  UNL1        0.0798
      4 C          63.4070   81.8700   13.1755 C.ar    1  UNL1        0.1104
      5 N          62.8644   82.0070   14.5672 N.ar    1  UNL1       -0.2383
      6 C          62.8829   83.3418   15.2513 C.ar    1  UNL1        0.1357
      7 C          63.4439   84.5395   14.5438 C.ar    1  UNL1        0.1585
      8 C          63.9865   84.4025   13.1521 C.ar    1  UNL1        0.0515
      9 C          64.5261   86.8761   14.8892 C.3     1  UNL1        0.2210
     10 C          64.1757   88.1063   14.1058 C.3     1  UNL1        0.0983
     11 N          63.3947   88.1436   12.8257 N.3     1  UNL1       -0.2955
     12 C          63.2810   89.5756   12.3937 C.3     1  UNL1        0.0686
     13 C          63.9917   90.4233   13.4068 C.3     1  UNL1        0.0172
     14 C          64.7598   90.9966   14.5607 C.3     1  UNL1        0.0029
     15 C          64.5447   89.5152   14.4649 C.3     1  UNL1        0.0195
     16 H          62.4647   87.7525   12.9761 H       1  UNL1        0.1233
@<TRIPOS>BOND
     1     2     3    1
     2     3     4   ar
     3     4     5   ar
     4     5     6   ar
     5     6     7   ar
     6     7     1    1
     7     1     9    1
     8    10     9    1
     9    10    11    1
    10    11    12    1
    11    13    12    1
    12    13    14    1
    13    15    14    1
    14     7     8   ar
    15     8     3   ar
    16    15    10    1
    17    15    13    1
    18    11    16    1
@<TRIPOS>MOLECULE
*****
 16 18 0 0 0
SMALL
GASTEIGER

@<TRIPOS>ATOM
      1 O          64.3267   84.0623   15.0176 O.3     1  UNL1       -0.4724
      2 CL         64.2865   82.8171    9.9730 Cl      1  UNL1       -0.0805
      3 C          63.8007   82.5830   11.3727 C.ar    1  UNL1        0.0798
      4 C          62.8089   81.4924   11.6498 C.ar    1  UNL1        0.1104
      5 N          62.3231   81.2583   13.0495 N.ar    1  UNL1       -0.2383
      6 C          62.8290   82.1149   14.1721 C.ar    1  UNL1        0.1357
      7 C          63.8207   83.2056   13.8950 C.ar    1  UNL1        0.1585
      8 C          64.3066   83.4396   12.4953 C.ar    1  UNL1        0.0515
      9 C          64.7049   85.4906   14.7593 C.3     1  UNL1        0.2210
     10 C          64.0597   86.5917   15.5477 C.3     1  UNL1        0.0983
     11 N          64.0060   88.0395   15.1591 N.3     1  UNL1       -0.2955
     12 C          63.2681   88.7808   16.2343 C.3     1  UNL1        0.0686
     13 C          62.8659   87.7912   17.2873 C.3     1  UNL1        0.0172
     14 C          62.6066   86.5942   18.1534 C.3     1  UNL1        0.0029
     15 C          63.3552   86.4382   16.8630 C.3     1  UNL1        0.0195
     16 H          63.5165   88.1413   14.2700 H       1  UNL1        0.1233
@<TRIPOS>BOND
     1     2     3    1
     2     3     4   ar
     3     4     5   ar
     4     5     6   ar
     5     6     7   ar
     6     7     1    1
     7     1     9    1
     8    10     9    1
     9    10    11    1
    10    11    12    1
    11    13    12    1
    12    13    14    1
    13    15    14    1
    14     7     8   ar
    15     8     3   ar
    16    15    10    1
    17    15    13    1
    18    11    16    1
@<TRIPOS>MOLECULE
*****
 16 18 0 0 0
SMALL
GASTEIGER

@<TRIPOS>ATOM
      1 O          61.8478   86.3533   12.0183 O.3     1  UNL1       -0.4724
      2 CL         63.5658   81.7022   10.4638 Cl      1  UNL1       -0.0805
      3 C          63.5581   82.8143   11.4705 C.ar    1  UNL1        0.0798
      4 C          64.4019   82.7128   12.7065 C.ar    1  UNL1        0.1104
      5 N          64.3943   83.8248   13.7131 N.ar    1  UNL1       -0.2383
      6 C          63.5429   85.0383   13.4838 C.ar    1  UNL1        0.1357
      7 C          62.6992   85.1398   12.2477 C.ar    1  UNL1        0.1585
      8 C          62.7068   84.0277   11.2411 C.ar    1  UNL1        0.0515
      9 C          61.9966   87.1456   10.7534 C.3     1  UNL1        0.2210
     10 C          61.0961   86.8704    9.5857 C.3     1  UNL1        0.0983
     11 N          59.7179   87.4274    9.3847 N.3     1  UNL1       -0.2955
     12 C          59.1857   86.8911    8.0888 C.3     1  UNL1        0.0686
     13 C          60.2350   86.0027    7.4890 C.3     1  UNL1        0.0172
     14 C          61.4486   85.1909    7.1451 C.3     1  UNL1        0.0029
     15 C          61.4157   85.9899    8.4141 C.3     1  UNL1        0.0195
     16 H          59.7583   88.4459    9.3473 H       1  UNL1        0.1233
@<TRIPOS>BOND
     1     2     3    1
     2     3     4   ar
     3     4     5   ar
     4     5     6   ar
     5     6     7   ar
     6     7     1    1
     7     1     9    1
     8    10     9    1
     9    10    11    1
    10    11    12    1
    11    13    12    1
    12    13    14    1
    13    15    14    1
    14     7     8   ar
    15     8     3   ar
    16    15    10    1
    17    15    13    1
    18    11    16    1
@<TRIPOS>MOLECULE
*****
 16 18 0 0 0
SMALL
GASTEIGER

@<TRIPOS>ATOM
      1 O          62.4122   86.5128   11.7747 O.3     1  UNL1       -0.4724
      2 CL         59.2144   86.5791    7.6797 Cl      1  UNL1       -0.0805
      3 C          60.0461   87.3118    8.6904 C.ar    1  UNL1        0.0798
      4 C          60.1105   88.8101    8.6644 C.ar    1  UNL1        0.1104
      5 N          60.9422   89.5427    9.6751 N.ar    1  UNL1       -0.2383
      6 C          61.7094   88.7770   10.7119 C.ar    1  UNL1        0.1357
      7 C          61.6450   87.2787   10.7379 C.ar    1  UNL1        0.1585
      8 C          60.8133   86.5460    9.7272 C.ar    1  UNL1        0.0515
      9 C          62.6742   85.0483   11.5842 C.3     1  UNL1        0.2210
     10 C          62.6072   84.1155   12.7571 C.3     1  UNL1        0.0983
     11 N          62.5555   84.5175   14.2013 N.3     1  UNL1       -0.2955
     12 C          62.4965   83.2676   15.0285 C.3     1  UNL1        0.0686
     13 C          62.5119   82.0931   14.0955 C.3     1  UNL1        0.0172
     14 C          62.5408   81.1383   12.9390 C.3     1  UNL1        0.0029
     15 C          62.5803   82.6172   12.6917 C.3     1  UNL1        0.0195
     16 H          61.7259   85.0857   14.3730 H       1  UNL1        0.1233
@<TRIPOS>BOND
     1     2     3    1
     2     3     4   ar
     3     4     5   ar
     4     5     6   ar
     5     6     7   ar
     6     7     1    1
     7     1     9    1
     8    10     9    1
     9    10    11    1
    10    11    12    1
    11    13    12    1
    12    13    14    1
    13    15    14    1
    14     7     8   ar
    15     8     3   ar
    16    15    10    1
    17    15    13    1
    18    11    16    1
@<TRIPOS>MOLECULE
*****
 16 18 0 0 0
SMALL
GASTEIGER

@<TRIPOS>ATOM
      1 O          62.7313   85.7279   12.3765 O.3     1  UNL1       -0.4724
      2 CL         62.8232   80.6025   11.5269 Cl      1  UNL1       -0.0805
      3 C          62.7542   81.7606   12.4777 C.ar    1  UNL1        0.0798
      4 C          62.6622   81.5142   13.9544 C.ar    1  UNL1        0.1104
      5 N          62.5932   82.6723   14.9052 N.ar    1  UNL1       -0.2383
      6 C          62.6162   84.0768   14.3792 C.ar    1  UNL1        0.1357
      7 C          62.7082   84.3233   12.9025 C.ar    1  UNL1        0.1585
      8 C          62.7772   83.1651   11.9517 C.ar    1  UNL1        0.0515
      9 C          61.8216   86.1222   11.2509 C.3     1  UNL1        0.2210
     10 C          61.3313   87.5357   11.1428 C.3     1  UNL1        0.0983
     11 N          59.9599   88.0233   11.5056 N.3     1  UNL1       -0.2955
     12 C          59.9073   89.4987   11.2400 C.3     1  UNL1        0.0686
     13 C          61.2462   89.9229   10.7131 C.3     1  UNL1        0.0172
     14 C          62.6577   90.0439   10.2202 C.3     1  UNL1        0.0029
     15 C          62.1262   88.7097   10.6530 C.3     1  UNL1        0.0195
     16 H          59.7783   87.8426   12.4929 H       1  UNL1        0.1233
@<TRIPOS>BOND
     1     2     3    1
     2     3     4   ar
     3     4     5   ar
     4     5     6   ar
     5     6     7   ar
     6     7     1    1
     7     1     9    1
     8    10     9    1
     9    10    11    1
    10    11    12    1
    11    13    12    1
    12    13    14    1
    13    15    14    1
    14     7     8   ar
    15     8     3   ar
    16    15    10    1
    17    15    13    1
    18    11    16    1
@<TRIPOS>MOLECULE
*****
 16 18 0 0 0
SMALL
GASTEIGER

@<TRIPOS>ATOM
      1 O          62.2951   85.6392   12.6401 O.3     1  UNL1       -0.4724
      2 CL         62.8301   85.0128    7.5096 Cl      1  UNL1       -0.0805
      3 C          62.1497   85.6692    8.6742 C.ar    1  UNL1        0.0798
      4 C          61.0565   86.6688    8.4382 C.ar    1  UNL1        0.1104
      5 N          60.3762   87.3252    9.6028 N.ar    1  UNL1       -0.2383
      6 C          60.7890   86.9820   11.0034 C.ar    1  UNL1        0.1357
      7 C          61.8822   85.9824   11.2394 C.ar    1  UNL1        0.1585
      8 C          62.5626   85.3260   10.0748 C.ar    1  UNL1        0.0515
      9 C          63.3772   84.6277   12.8764 C.3     1  UNL1        0.2210
     10 C          63.0930   83.1671   12.6863 C.3     1  UNL1        0.0983
     11 N          63.6084   82.3066   11.5709 N.3     1  UNL1       -0.2955
     12 C          63.0776   80.9183   11.7733 C.3     1  UNL1        0.0686
     13 C          62.2341   80.9209   13.0138 C.3     1  UNL1        0.0172
     14 C          61.4682   81.2270   14.2666 C.3     1  UNL1        0.0029
     15 C          62.2437   82.3107   13.5780 C.3     1  UNL1        0.0195
     16 H          64.6282   82.2931   11.5871 H       1  UNL1        0.1233
@<TRIPOS>BOND
     1     2     3    1
     2     3     4   ar
     3     4     5   ar
     4     5     6   ar
     5     6     7   ar
     6     7     1    1
     7     1     9    1
     8    10     9    1
     9    10    11    1
    10    11    12    1
    11    13    12    1
    12    13    14    1
    13    15    14    1
    14     7     8   ar
    15     8     3   ar
    16    15    10    1
    17    15    13    1
    18    11    16    1
@<TRIPOS>MOLECULE
*****
 16 18 0 0 0
SMALL
GASTEIGER

@<TRIPOS>ATOM
      1 O          62.6442   86.2431   12.0756 O.3     1  UNL1       -0.4724
      2 CL         62.6702   91.0522   10.1078 Cl      1  UNL1       -0.0805
      3 C          62.0490   89.6900   10.2008 C.ar    1  UNL1        0.0798
      4 C          60.8197   89.3702    9.4031 C.ar    1  UNL1        0.1104
      5 N          60.1985   88.0080    9.4962 N.ar    1  UNL1       -0.2383
      6 C          60.8067   86.9657   10.3870 C.ar    1  UNL1        0.1357
      7 C          62.0360   87.2855   11.1847 C.ar    1  UNL1        0.1585
      8 C          62.6572   88.6477   11.0917 C.ar    1  UNL1        0.0515
      9 C          62.7477   84.8225   11.6056 C.3     1  UNL1        0.2210
     10 C          62.6533   83.6970   12.5928 C.3     1  UNL1        0.0983
     11 N          62.5004   83.8380   14.0784 N.3     1  UNL1       -0.2955
     12 C          62.4478   82.4612   14.6716 C.3     1  UNL1        0.0686
     13 C          62.5683   81.4694   13.5526 C.3     1  UNL1        0.0172
     14 C          62.7058   80.7334   12.2528 C.3     1  UNL1        0.0029
     15 C          62.6953   82.2333   12.2679 C.3     1  UNL1        0.0195
     16 H          61.6383   84.3399   14.2915 H       1  UNL1        0.1233
@<TRIPOS>BOND
     1     2     3    1
     2     3     4   ar
     3     4     5   ar
     4     5     6   ar
     5     6     7   ar
     6     7     1    1
     7     1     9    1
     8    10     9    1
     9    10    11    1
    10    11    12    1
    11    13    12    1
    12    13    14    1
    13    15    14    1
    14     7     8   ar
    15     8     3   ar
    16    15    10    1
    17    15    13    1
    18    11    16    1
