@<TRIPOS>MOLECULE
*****
 21 22 0 0 0
SMALL
GASTEIGER

@<TRIPOS>ATOM
      1 C          63.7164   83.7715   10.4117 C.ar    1  UNL1        0.1386
      2 C          62.8299   84.4812   11.3916 C.ar    1  UNL1        0.0384
      3 C          61.9432   85.5987   10.9280 C.ar    1  UNL1        0.0207
      4 C          61.9431   86.0065    9.4846 C.ar    1  UNL1        0.0657
      5 C          62.8297   85.2968    8.5047 C.ar    1  UNL1        0.0207
      6 C          63.7163   84.1793    8.9683 C.ar    1  UNL1        0.0384
      7 N          61.0564   87.1241    9.0210 N.ar    1  UNL1       -0.2864
      8 C          61.0776   88.5352    9.5292 C.ar    1  UNL1        0.1022
      9 C          60.0271   89.3099    8.7901 C.ar    1  UNL1        0.1196
     10 N          59.3567   88.3777    7.8251 N.ar    1  UNL1       -0.2220
     11 C          59.9928   87.0267    7.9678 C.ar    1  UNL1        0.1828
     12 O          64.6031   82.6539   10.8753 O.3     1  UNL1       -0.4755
     13 C          64.2883   81.9255   12.1482 C.3     1  UNL1        0.2054
     14 C          63.0284   81.1190   12.2588 C.3     1  UNL1        0.0473
     15 C          62.4297   80.8443   13.6065 C.3     1  UNL1        0.0039
     16 C          61.8265   81.9642   14.4015 C.3     1  UNL1        0.0016
     17 C          62.7099   83.0125   15.0101 C.3     1  UNL1        0.0173
     18 C          62.1667   84.3833   15.2856 C.3     1  UNL1        0.0722
     19 C          64.3107   85.8487   15.2056 C.3     1  UNL1        0.0897
     20 N          63.0486   85.4300   15.8997 N.3     1  UNL1       -0.2703
     21 C          62.6683   86.0579   17.2077 C.3     1  UNL1        0.0897
@<TRIPOS>BOND
     1    19    20    1
     2    20    21    1
     3    20    18    1
     4    18    17    1
     5    17    16    1
     6    16    15    1
     7    15    14    1
     8    14    13    1
     9    13    12    1
    10    12     1    1
    11     1     2   ar
    12     2     3   ar
    13     3     4   ar
    14     4     7    1
    15     7     8   ar
    16     8     9   ar
    17     9    10   ar
    18    10    11   ar
    19     4     5   ar
    20     5     6   ar
    21     6     1   ar
    22    11     7   ar
@<TRIPOS>MOLECULE
*****
 21 22 0 0 0
SMALL
GASTEIGER

@<TRIPOS>ATOM
      1 C          63.0767   89.7214   12.6496 C.ar    1  UNL1        0.1386
      2 C          63.5568   90.9868   12.0029 C.ar    1  UNL1        0.0384
      3 C          64.7209   91.7320   12.5857 C.ar    1  UNL1        0.0207
      4 C          65.4048   91.2118   13.8152 C.ar    1  UNL1        0.0657
      5 C          64.9246   89.9464   14.4618 C.ar    1  UNL1        0.0207
      6 C          63.7606   89.2012   13.8790 C.ar    1  UNL1        0.0384
      7 N          66.5689   91.9569   14.3980 N.ar    1  UNL1       -0.2864
      8 C          66.5472   92.7903   15.6450 C.ar    1  UNL1        0.1022
      9 C          67.9239   93.3480   15.8539 C.ar    1  UNL1        0.1196
     10 N          68.7965   92.8593   14.7359 N.ar    1  UNL1       -0.2220
     11 C          67.9590   91.9996   13.8362 C.ar    1  UNL1        0.1828
     12 O          61.9126   88.9762   12.0667 O.3     1  UNL1       -0.4755
     13 C          61.9012   88.6249   10.6085 C.3     1  UNL1        0.2054
     14 C          62.0493   87.1950   10.1804 C.3     1  UNL1        0.0473
     15 C          61.5317   86.0924   11.0560 C.3     1  UNL1        0.0039
     16 C          62.4248   84.9448   11.4237 C.3     1  UNL1        0.0016
     17 C          63.1226   84.9329   12.7515 C.3     1  UNL1        0.0173
     18 C          62.6650   83.9972   13.8308 C.3     1  UNL1        0.0722
     19 C          64.0217   81.9608   12.9575 C.3     1  UNL1        0.0897
     20 N          62.8128   82.5153   13.6511 N.3     1  UNL1       -0.2703
     21 C          61.7516   81.5880   14.1648 C.3     1  UNL1        0.0897
@<TRIPOS>BOND
     1    19    20    1
     2    20    21    1
     3    20    18    1
     4    18    17    1
     5    17    16    1
     6    16    15    1
     7    15    14    1
     8    14    13    1
     9    13    12    1
    10    12     1    1
    11     1     2   ar
    12     2     3   ar
    13     3     4   ar
    14     4     7    1
    15     7     8   ar
    16     8     9   ar
    17     9    10   ar
    18    10    11   ar
    19     4     5   ar
    20     5     6   ar
    21     6     1   ar
    22    11     7   ar
@<TRIPOS>MOLECULE
*****
 21 22 0 0 0
SMALL
GASTEIGER

@<TRIPOS>ATOM
      1 C          62.3522   89.4486   10.8652 C.ar    1  UNL1        0.1386
      2 C          62.8835   90.6724   10.1797 C.ar    1  UNL1        0.0384
      3 C          63.8492   91.5718   10.8928 C.ar    1  UNL1        0.0207
      4 C          64.2836   91.2474   12.2913 C.ar    1  UNL1        0.0657
      5 C          63.7523   90.0236   12.9768 C.ar    1  UNL1        0.0207
      6 C          62.7866   89.1242   12.2637 C.ar    1  UNL1        0.0384
      7 N          65.2493   92.1468   13.0044 N.ar    1  UNL1       -0.2864
      8 C          65.7130   91.9949   14.4228 C.ar    1  UNL1        0.1022
      9 C          66.6712   93.1102   14.7193 C.ar    1  UNL1        0.1196
     10 N          66.7998   93.9514   13.4841 N.ar    1  UNL1       -0.2220
     11 C          65.9210   93.3560   12.4242 C.ar    1  UNL1        0.1828
     12 O          61.3864   88.5492   10.1521 O.3     1  UNL1       -0.4755
     13 C          60.8102   87.3576   10.8578 C.3     1  UNL1        0.2054
     14 C          61.4037   85.9974   10.6398 C.3     1  UNL1        0.0473
     15 C          62.3040   85.3967   11.6784 C.3     1  UNL1        0.0039
     16 C          62.8045   83.9921   11.5152 C.3     1  UNL1        0.0016
     17 C          64.0301   83.5421   12.2537 C.3     1  UNL1        0.0173
     18 C          63.9073   82.5671   13.3869 C.3     1  UNL1        0.0722
     19 C          62.4956   83.7258   15.2348 C.3     1  UNL1        0.0897
     20 N          62.6959   82.5938   14.2713 N.3     1  UNL1       -0.2703
     21 C          61.6850   81.4885   14.1920 C.3     1  UNL1        0.0897
@<TRIPOS>BOND
     1    19    20    1
     2    20    21    1
     3    20    18    1
     4    18    17    1
     5    17    16    1
     6    16    15    1
     7    15    14    1
     8    14    13    1
     9    13    12    1
    10    12     1    1
    11     1     2   ar
    12     2     3   ar
    13     3     4   ar
    14     4     7    1
    15     7     8   ar
    16     8     9   ar
    17     9    10   ar
    18    10    11   ar
    19     4     5   ar
    20     5     6   ar
    21     6     1   ar
    22    11     7   ar
@<TRIPOS>MOLECULE
*****
 21 22 0 0 0
SMALL
GASTEIGER

@<TRIPOS>ATOM
      1 C          63.5672   84.4394   15.3366 C.ar    1  UNL1        0.1386
      2 C          64.1934   85.1777   14.1908 C.ar    1  UNL1        0.0384
      3 C          64.3052   86.6729   14.2334 C.ar    1  UNL1        0.0207
      4 C          63.7907   87.4299   15.4218 C.ar    1  UNL1        0.0657
      5 C          63.1645   86.6917   16.5675 C.ar    1  UNL1        0.0207
      6 C          63.0527   85.1964   16.5249 C.ar    1  UNL1        0.0384
      7 N          63.9025   88.9251   15.4644 N.ar    1  UNL1       -0.2864
      8 C          64.6645   89.7803   14.4959 C.ar    1  UNL1        0.1022
      9 C          64.5049   91.2114   14.9159 C.ar    1  UNL1        0.1196
     10 N          63.6441   91.2407   16.1440 N.ar    1  UNL1       -0.2220
     11 C          63.2719   89.8277   16.4830 C.ar    1  UNL1        0.1828
     12 O          63.4554   82.9442   15.2940 O.3     1  UNL1       -0.4755
     13 C          62.3649   82.2961   14.4936 C.3     1  UNL1        0.2054
     14 C          62.7107   81.3366   13.3937 C.3     1  UNL1        0.0473
     15 C          62.6835   81.7923   11.9648 C.3     1  UNL1        0.0039
     16 C          63.7941   82.6462   11.4287 C.3     1  UNL1        0.0016
     17 C          63.4775   83.8501   10.5919 C.3     1  UNL1        0.0173
     18 C          62.4483   84.8372   11.0570 C.3     1  UNL1        0.0722
     19 C          62.1492   86.1360    8.8268 C.3     1  UNL1        0.0897
     20 N          62.2651   86.1321   10.3223 N.3     1  UNL1       -0.2703
     21 C          62.1977   87.4231   11.0831 C.3     1  UNL1        0.0897
@<TRIPOS>BOND
     1    19    20    1
     2    20    21    1
     3    20    18    1
     4    18    17    1
     5    17    16    1
     6    16    15    1
     7    15    14    1
     8    14    13    1
     9    13    12    1
    10    12     1    1
    11     1     2   ar
    12     2     3   ar
    13     3     4   ar
    14     4     7    1
    15     7     8   ar
    16     8     9   ar
    17     9    10   ar
    18    10    11   ar
    19     4     5   ar
    20     5     6   ar
    21     6     1   ar
    22    11     7   ar
@<TRIPOS>MOLECULE
*****
 21 22 0 0 0
SMALL
GASTEIGER

@<TRIPOS>ATOM
      1 C          61.2446   90.0037   10.5898 C.ar    1  UNL1        0.1386
      2 C          61.3590   89.6659   12.0468 C.ar    1  UNL1        0.0384
      3 C          62.5572   90.1155   12.8291 C.ar    1  UNL1        0.0207
      4 C          63.6410   90.9030   12.1545 C.ar    1  UNL1        0.0657
      5 C          63.5267   91.2408   10.6976 C.ar    1  UNL1        0.0207
      6 C          62.3284   90.7912    9.9152 C.ar    1  UNL1        0.0384
      7 N          64.8393   91.3526   12.9369 N.ar    1  UNL1       -0.2864
      8 C          65.7731   92.4638   12.5585 C.ar    1  UNL1        0.1022
      9 C          66.8251   92.5679   13.6228 C.ar    1  UNL1        0.1196
     10 N          66.5413   91.5211   14.6589 N.ar    1  UNL1       -0.2220
     11 C          65.3141   90.7700   14.2350 C.ar    1  UNL1        0.1828
     12 O          60.0464   89.5541    9.8075 O.3     1  UNL1       -0.4755
     13 C          60.2285   88.8366    8.5029 C.3     1  UNL1        0.2054
     14 C          60.1643   87.3388    8.4553 C.3     1  UNL1        0.0473
     15 C          61.2648   86.5212    9.0641 C.3     1  UNL1        0.0039
     16 C          61.2072   86.1486   10.5160 C.3     1  UNL1        0.0016
     17 C          62.4764   85.9512   11.2906 C.3     1  UNL1        0.0173
     18 C          62.6196   84.7732   12.2081 C.3     1  UNL1        0.0722
     19 C          63.8622   83.3538   10.4217 C.3     1  UNL1        0.0897
     20 N          63.0125   83.4353   11.6552 N.3     1  UNL1       -0.2703
     21 C          62.5558   82.1790   12.3357 C.3     1  UNL1        0.0897
@<TRIPOS>BOND
     1    19    20    1
     2    20    21    1
     3    20    18    1
     4    18    17    1
     5    17    16    1
     6    16    15    1
     7    15    14    1
     8    14    13    1
     9    13    12    1
    10    12     1    1
    11     1     2   ar
    12     2     3   ar
    13     3     4   ar
    14     4     7    1
    15     7     8   ar
    16     8     9   ar
    17     9    10   ar
    18    10    11   ar
    19     4     5   ar
    20     5     6   ar
    21     6     1   ar
    22    11     7   ar
@<TRIPOS>MOLECULE
*****
 21 22 0 0 0
SMALL
GASTEIGER

@<TRIPOS>ATOM
      1 C          63.8127   88.2218   13.4217 C.ar    1  UNL1        0.1386
      2 C          63.1121   87.4444   12.3471 C.ar    1  UNL1        0.0384
      3 C          62.9978   85.9526   12.4539 C.ar    1  UNL1        0.0207
      4 C          63.5842   85.2382   13.6353 C.ar    1  UNL1        0.0657
      5 C          64.2848   86.0156   14.7099 C.ar    1  UNL1        0.0207
      6 C          64.3990   87.5074   14.6031 C.ar    1  UNL1        0.0384
      7 N          63.4699   83.7464   13.7422 N.ar    1  UNL1       -0.2864
      8 C          64.1971   82.7435   12.8963 C.ar    1  UNL1        0.1022
      9 C          63.7850   81.3728   13.3450 C.ar    1  UNL1        0.1196
     10 N          62.8031   81.5285   14.4682 N.ar    1  UNL1       -0.2220
     11 C          62.6084   82.9954   14.7137 C.ar    1  UNL1        0.1828
     12 O          63.9269   89.7136   13.3148 O.3     1  UNL1       -0.4755
     13 C          64.3662   90.5191   14.5015 C.3     1  UNL1        0.2054
     14 C          65.7436   91.1119   14.5373 C.3     1  UNL1        0.0473
     15 C          66.2086   91.9969   13.4190 C.3     1  UNL1        0.0039
     16 C          65.2503   92.4098   12.3414 C.3     1  UNL1        0.0016
     17 C          65.7659   92.7950   10.9865 C.3     1  UNL1        0.0173
     18 C          66.8433   93.8310   10.8607 C.3     1  UNL1        0.0722
     19 C          68.6377   92.7195    9.3458 C.3     1  UNL1        0.0897
     20 N          67.7133   93.8638    9.6392 N.3     1  UNL1       -0.2703
     21 C          67.6590   95.0410    8.7111 C.3     1  UNL1        0.0897
@<TRIPOS>BOND
     1    19    20    1
     2    20    21    1
     3    20    18    1
     4    18    17    1
     5    17    16    1
     6    16    15    1
     7    15    14    1
     8    14    13    1
     9    13    12    1
    10    12     1    1
    11     1     2   ar
    12     2     3   ar
    13     3     4   ar
    14     4     7    1
    15     7     8   ar
    16     8     9   ar
    17     9    10   ar
    18    10    11   ar
    19     4     5   ar
    20     5     6   ar
    21     6     1   ar
    22    11     7   ar
@<TRIPOS>MOLECULE
*****
 21 22 0 0 0
SMALL
GASTEIGER

@<TRIPOS>ATOM
      1 C          61.1897   87.1956    9.4068 C.ar    1  UNL1        0.1386
      2 C          60.9385   86.9414   10.8636 C.ar    1  UNL1        0.0384
      3 C          61.6342   85.8085   11.5581 C.ar    1  UNL1        0.0207
      4 C          62.5811   84.9297   10.7959 C.ar    1  UNL1        0.0657
      5 C          62.8323   85.1839    9.3391 C.ar    1  UNL1        0.0207
      6 C          62.1366   86.3168    8.6446 C.ar    1  UNL1        0.0384
      7 N          63.2769   83.7968   11.4904 N.ar    1  UNL1       -0.2864
      8 C          62.8927   83.2049   12.8141 C.ar    1  UNL1        0.1022
      9 C          63.8573   82.0991   13.1250 C.ar    1  UNL1        0.1196
     10 N          64.8377   82.0075   11.9934 N.ar    1  UNL1       -0.2220
     11 C          64.4790   83.0567   10.9833 C.ar    1  UNL1        0.1828
     12 O          60.4939   88.3286    8.7123 O.3     1  UNL1       -0.4755
     13 C          60.3621   89.6583    9.3937 C.3     1  UNL1        0.2054
     14 C          61.3297   90.0478   10.4717 C.3     1  UNL1        0.0473
     15 C          62.7779   90.2556   10.1404 C.3     1  UNL1        0.0039
     16 C          63.4980   91.4677   10.6525 C.3     1  UNL1        0.0016
     17 C          64.2261   91.4096   11.9627 C.3     1  UNL1        0.0173
     18 C          65.3993   92.3112   12.2093 C.3     1  UNL1        0.0722
     19 C          66.5705   93.7381   14.0375 C.3     1  UNL1        0.0897
     20 N          65.9703   92.4381   13.5906 N.3     1  UNL1       -0.2703
     21 C          65.9411   91.2651   14.5249 C.3     1  UNL1        0.0897
@<TRIPOS>BOND
     1    19    20    1
     2    20    21    1
     3    20    18    1
     4    18    17    1
     5    17    16    1
     6    16    15    1
     7    15    14    1
     8    14    13    1
     9    13    12    1
    10    12     1    1
    11     1     2   ar
    12     2     3   ar
    13     3     4   ar
    14     4     7    1
    15     7     8   ar
    16     8     9   ar
    17     9    10   ar
    18    10    11   ar
    19     4     5   ar
    20     5     6   ar
    21     6     1   ar
    22    11     7   ar
@<TRIPOS>MOLECULE
*****
 21 22 0 0 0
SMALL
GASTEIGER

@<TRIPOS>ATOM
      1 C          62.8057   90.2630   11.8859 C.ar    1  UNL1        0.1386
      2 C          63.0913   89.7162   13.2531 C.ar    1  UNL1        0.0384
      3 C          64.2356   90.2615   14.0550 C.ar    1  UNL1        0.0207
      4 C          65.0945   91.3535   13.4897 C.ar    1  UNL1        0.0657
      5 C          64.8090   91.9003   12.1224 C.ar    1  UNL1        0.0207
      6 C          63.6646   91.3550   11.3205 C.ar    1  UNL1        0.0384
      7 N          66.2389   91.8988   14.2916 N.ar    1  UNL1       -0.2864
      8 C          67.6852   91.8722   13.8949 C.ar    1  UNL1        0.1022
      9 C          68.4781   92.5234   14.9891 C.ar    1  UNL1        0.1196
     10 N          67.5218   92.9525   16.0621 N.ar    1  UNL1       -0.2220
     11 C          66.1379   92.5665   15.6310 C.ar    1  UNL1        0.1828
     12 O          61.6613   89.7177   11.0840 O.3     1  UNL1       -0.4755
     13 C          61.9272   88.8200    9.9121 C.3     1  UNL1        0.2054
     14 C          62.3175   87.3891   10.1367 C.3     1  UNL1        0.0473
     15 C          62.0114   86.3556    9.0934 C.3     1  UNL1        0.0039
     16 C          63.0415   85.3269    8.7320 C.3     1  UNL1        0.0016
     17 C          63.3215   84.1860    9.6646 C.3     1  UNL1        0.0173
     18 C          62.8961   84.2695   11.1006 C.3     1  UNL1        0.0722
     19 C          64.4474   82.3902   12.0019 C.3     1  UNL1        0.0897
     20 N          63.7848   83.7243   12.1791 N.3     1  UNL1       -0.2703
     21 C          64.0110   84.5131   13.4346 C.3     1  UNL1        0.0897
@<TRIPOS>BOND
     1    19    20    1
     2    20    21    1
     3    20    18    1
     4    18    17    1
     5    17    16    1
     6    16    15    1
     7    15    14    1
     8    14    13    1
     9    13    12    1
    10    12     1    1
    11     1     2   ar
    12     2     3   ar
    13     3     4   ar
    14     4     7    1
    15     7     8   ar
    16     8     9   ar
    17     9    10   ar
    18    10    11   ar
    19     4     5   ar
    20     5     6   ar
    21     6     1   ar
    22    11     7   ar
@<TRIPOS>MOLECULE
*****
 21 22 0 0 0
SMALL
GASTEIGER

@<TRIPOS>ATOM
      1 C          63.1586   89.8722   12.0070 C.ar    1  UNL1        0.1386
      2 C          62.4920   90.5857   10.8684 C.ar    1  UNL1        0.0384
      3 C          61.6868   89.8120    9.8669 C.ar    1  UNL1        0.0207
      4 C          61.5482   88.3248   10.0040 C.ar    1  UNL1        0.0657
      5 C          62.2148   87.6112   11.1426 C.ar    1  UNL1        0.0207
      6 C          63.0200   88.3850   12.1441 C.ar    1  UNL1        0.0384
      7 N          60.7430   87.5510    9.0025 N.ar    1  UNL1       -0.2864
      8 C          59.4244   87.9669    8.4207 C.ar    1  UNL1        0.1022
      9 C          58.9815   86.8985    7.4656 C.ar    1  UNL1        0.1196
     10 N          60.0262   85.8222    7.4571 N.ar    1  UNL1       -0.2220
     11 C          61.1149   86.2255    8.4069 C.ar    1  UNL1        0.1828
     12 O          63.9638   90.6459   13.0085 O.3     1  UNL1       -0.4755
     13 C          64.5684   89.9439   14.1881 C.3     1  UNL1        0.2054
     14 C          63.6862   89.4219   15.2833 C.3     1  UNL1        0.0473
     15 C          63.7410   87.9719   15.6635 C.3     1  UNL1        0.0039
     16 C          64.5837   87.0193   14.8682 C.3     1  UNL1        0.0016
     17 C          64.3589   85.5410   14.9862 C.3     1  UNL1        0.0173
     18 C          63.2129   84.8966   14.2643 C.3     1  UNL1        0.0722
     19 C          62.2647   82.4837   14.4343 C.3     1  UNL1        0.0897
     20 N          63.2813   83.4448   13.8932 N.3     1  UNL1       -0.2703
     21 C          64.3663   82.9541   12.9811 C.3     1  UNL1        0.0897
@<TRIPOS>BOND
     1    19    20    1
     2    20    21    1
     3    20    18    1
     4    18    17    1
     5    17    16    1
     6    16    15    1
     7    15    14    1
     8    14    13    1
     9    13    12    1
    10    12     1    1
    11     1     2   ar
    12     2     3   ar
    13     3     4   ar
    14     4     7    1
    15     7     8   ar
    16     8     9   ar
    17     9    10   ar
    18    10    11   ar
    19     4     5   ar
    20     5     6   ar
    21     6     1   ar
    22    11     7   ar
