@<TRIPOS>MOLECULE
*****
 42 43 0 0 0
SMALL
GASTEIGER

@<TRIPOS>ATOM
      1 O          63.9384   88.8322   14.5497 O.3     1  UNL1       -0.2925
      2 P          63.6734   90.0887   15.3249 P.3     1  UNL1        0.3697
      3 O          62.5298   89.4158   16.0245 O.2     1  UNL1       -0.2553
      4 O          63.4083   91.3452   16.1002 O.3     1  UNL1       -0.3218
      5 H          62.6540   91.2058   16.6938 H       1  UNL1        0.2198
      6 C          64.8170   90.7616   14.6254 C.3     1  UNL1        0.2579
      7 O          65.6174   91.8123   15.3362 O.3     1  UNL1       -0.3426
      8 C          67.0599   92.0230   14.9831 C.3     1  UNL1        0.1387
      9 C          68.0490   92.3817   16.0523 C.3     1  UNL1        0.0342
     10 C          67.5134   91.8750   13.5609 C.3     1  UNL1        0.1384
     11 N          67.0872   92.8775   12.5297 N.ar    1  UNL1       -0.2918
     12 C          66.1431   94.0221   12.7501 C.ar    1  UNL1        0.1798
     13 N          66.0028   94.7634   11.4536 N.ar    1  UNL1       -0.2195
     14 C          66.8601   94.0769   10.4320 C.ar    1  UNL1        0.1481
     15 C          67.1170   94.3625    8.9820 C.ar    1  UNL1        0.1480
     16 N          66.4468   95.5280    8.3170 N.pl3   1  UNL1       -0.3413
     17 N          68.0442   93.4826    8.1972 N.ar    1  UNL1       -0.2078
     18 C          68.7144   92.3170    8.8622 C.ar    1  UNL1        0.2015
     19 N          68.4575   92.0314   10.3122 N.ar    1  UNL1       -0.2048
     20 C          67.5303   92.9113   11.0970 C.ar    1  UNL1        0.1674
     21 H          65.8383   96.1056    8.8321 H       1  UNL1        0.1438
     22 H          66.6155   95.7155    7.3653 H       1  UNL1        0.1438
     23 C          63.7777   87.4952   15.2104 C.3     1  UNL1        0.1540
     24 C          64.5452   86.3107   14.7029 C.3     1  UNL1        0.0646
     25 C          63.8244   85.1869   14.0191 C.3     1  UNL1        0.1448
     26 O          63.9665   83.7838   14.5300 O.3     1  UNL1       -0.3537
     27 C          62.7820   83.0761   15.1181 C.3     1  UNL1        0.1422
     28 C          62.0301   82.0668   14.3021 C.3     1  UNL1        0.0321
     29 C          62.7282   81.3188   13.2052 C.3     1  UNL1        0.0026
     30 C          62.7283   81.8641   11.8078 C.3     1  UNL1        0.0001
     31 C          64.0272   82.1227   11.1036 C.3     1  UNL1        0.0000
     32 C          64.2857   83.4592   10.4736 C.3     1  UNL1        0.0000
     33 C          63.1711   84.4541   10.3413 C.3     1  UNL1        0.0000
     34 C          62.9378   85.1494    9.0328 C.3     1  UNL1        0.0000
     35 C          62.0914   86.3866    8.9813 C.3     1  UNL1        0.0000
     36 C          60.7230   86.3344    8.3689 C.3     1  UNL1        0.0000
     37 C          59.7268   87.4157    8.6658 C.3     1  UNL1        0.0000
     38 C          60.1484   88.8547    8.6289 C.3     1  UNL1        0.0000
     39 C          60.1914   89.6565    9.8958 C.3     1  UNL1        0.0000
     40 C          61.0263   89.1894   11.0511 C.3     1  UNL1        0.0000
     41 C          63.0071   90.6762   10.2662 C.3     1  UNL1        0.0000
     42 C          62.4728   89.5776   11.1365 C.3     1  UNL1        0.0000
@<TRIPOS>BOND
     1    41    42    1
     2    42    40    1
     3    40    39    1
     4    39    38    1
     5    38    37    1
     6    37    36    1
     7    36    35    1
     8    35    34    1
     9    34    33    1
    10    33    32    1
    11    32    31    1
    12    31    30    1
    13    30    29    1
    14    29    28    1
    15    28    27    1
    16    27    26    1
    17    26    25    1
    18    25    24    1
    19    24    23    1
    20    23     1    1
    21     1     2    1
    22     2     3    2
    23     2     4    1
    24     2     6    1
    25     6     7    1
    26     7     8    1
    27     8     9    1
    28     8    10    1
    29    10    11    1
    30    11    12   ar
    31    12    13   ar
    32    13    14   ar
    33    14    15   ar
    34    15    16    1
    35    15    17   ar
    36    17    18   ar
    37    18    19   ar
    38    19    20   ar
    39    20    11   ar
    40    20    14   ar
    41     4     5    1
    42    16    21    1
    43    16    22    1
@<TRIPOS>MOLECULE
*****
 42 43 0 0 0
SMALL
GASTEIGER

@<TRIPOS>ATOM
      1 O          61.9463   90.1682   10.7811 O.3     1  UNL1       -0.2925
      2 P          62.1354   90.0932   12.2672 P.3     1  UNL1        0.3697
      3 O          60.7957   89.4326   12.4043 O.2     1  UNL1       -0.2553
      4 O          62.3245   90.0182   13.7533 O.3     1  UNL1       -0.3218
      5 H          61.5485   89.5993   14.1573 H       1  UNL1        0.2198
      6 C          63.4751   90.7539   12.1300 C.3     1  UNL1        0.2579
      7 O          63.8907   91.8163   13.1039 O.3     1  UNL1       -0.3426
      8 C          65.1998   91.7004   13.8269 C.3     1  UNL1        0.1387
      9 C          65.2220   91.3700   15.2899 C.3     1  UNL1        0.0342
     10 C          66.4869   91.9148   13.0869 C.3     1  UNL1        0.1384
     11 N          66.6217   93.0658   12.1345 N.ar    1  UNL1       -0.2918
     12 C          66.1253   94.4626   12.3638 C.ar    1  UNL1        0.1798
     13 N          66.4733   95.2822   11.1567 N.ar    1  UNL1       -0.2195
     14 C          67.1848   94.3919   10.1813 C.ar    1  UNL1        0.1481
     15 C          67.7610   94.6516    8.8210 C.ar    1  UNL1        0.1480
     16 N          67.6693   96.0214    8.2167 N.pl3   1  UNL1       -0.3413
     17 N          68.4288   93.5415    8.0650 N.ar    1  UNL1       -0.2078
     18 C          68.5205   92.1717    8.6694 C.ar    1  UNL1        0.2015
     19 N          67.9443   91.9120   10.0297 N.ar    1  UNL1       -0.2048
     20 C          67.2765   93.0221   10.7857 C.ar    1  UNL1        0.1674
     21 H          67.2310   96.7500    8.7129 H       1  UNL1        0.1438
     22 H          68.0475   96.1918    7.3238 H       1  UNL1        0.1438
     23 C          60.5636   90.1594   10.1995 C.3     1  UNL1        0.1540
     24 C          60.2505   89.2837    9.0226 C.3     1  UNL1        0.0646
     25 C          60.2490   87.7918    9.1773 C.3     1  UNL1        0.1448
     26 O          61.5387   87.0292    9.1072 O.3     1  UNL1       -0.3537
     27 C          62.2619   86.6609   10.3687 C.3     1  UNL1        0.1422
     28 C          62.3595   85.2231   10.7848 C.3     1  UNL1        0.0321
     29 C          63.1687   84.2593    9.9685 C.3     1  UNL1        0.0026
     30 C          64.1560   83.3517   10.6405 C.3     1  UNL1        0.0001
     31 C          64.0099   81.8638   10.5199 C.3     1  UNL1        0.0000
     32 C          62.8496   81.1690   11.1687 C.3     1  UNL1        0.0000
     33 C          62.9121   80.8024   12.6219 C.3     1  UNL1        0.0000
     34 C          61.9922   81.4663   13.6031 C.3     1  UNL1        0.0000
     35 C          62.4304   82.7090   14.3198 C.3     1  UNL1        0.0000
     36 C          63.8907   82.9736   14.5378 C.3     1  UNL1        0.0000
     37 C          64.5200   84.2145   13.9773 C.3     1  UNL1        0.0000
     38 C          64.9636   85.3121   14.8983 C.3     1  UNL1        0.0000
     39 C          63.9755   86.3331   15.3790 C.3     1  UNL1        0.0000
     40 C          63.3207   86.1704   16.7187 C.3     1  UNL1        0.0000
     41 C          63.0906   88.7505   16.9197 C.3     1  UNL1        0.0000
     42 C          62.8738   87.3789   17.4869 C.3     1  UNL1        0.0000
@<TRIPOS>BOND
     1    41    42    1
     2    42    40    1
     3    40    39    1
     4    39    38    1
     5    38    37    1
     6    37    36    1
     7    36    35    1
     8    35    34    1
     9    34    33    1
    10    33    32    1
    11    32    31    1
    12    31    30    1
    13    30    29    1
    14    29    28    1
    15    28    27    1
    16    27    26    1
    17    26    25    1
    18    25    24    1
    19    24    23    1
    20    23     1    1
    21     1     2    1
    22     2     3    2
    23     2     4    1
    24     2     6    1
    25     6     7    1
    26     7     8    1
    27     8     9    1
    28     8    10    1
    29    10    11    1
    30    11    12   ar
    31    12    13   ar
    32    13    14   ar
    33    14    15   ar
    34    15    16    1
    35    15    17   ar
    36    17    18   ar
    37    18    19   ar
    38    19    20   ar
    39    20    11   ar
    40    20    14   ar
    41     4     5    1
    42    16    21    1
    43    16    22    1
@<TRIPOS>MOLECULE
*****
 42 43 0 0 0
SMALL
GASTEIGER

@<TRIPOS>ATOM
      1 O          63.8651   88.9228   13.5643 O.3     1  UNL1       -0.2925
      2 P          63.6671   90.0876   14.4884 P.3     1  UNL1        0.3697
      3 O          62.2229   89.7153   14.6483 O.2     1  UNL1       -0.2553
      4 O          63.4691   91.2525   15.4125 O.3     1  UNL1       -0.3218
      5 H          62.5459   91.2765   15.7091 H       1  UNL1        0.2198
      6 C          65.1113   90.4600   14.3285 C.3     1  UNL1        0.2579
      7 O          65.4954   91.6161   13.4534 O.3     1  UNL1       -0.3426
      8 C          66.5826   92.5550   13.8853 C.3     1  UNL1        0.1387
      9 C          67.8090   92.0209   14.5641 C.3     1  UNL1        0.0342
     10 C          66.4434   94.0280   13.6383 C.3     1  UNL1        0.1384
     11 N          66.4927   94.5616   12.2373 N.ar    1  UNL1       -0.2918
     12 C          65.9337   95.8740   11.7735 C.ar    1  UNL1        0.1798
     13 N          66.2052   95.9999   10.3036 N.ar    1  UNL1       -0.2195
     14 C          66.9320   94.7653    9.8591 C.ar    1  UNL1        0.1481
     15 C          67.4550   94.3357    8.5204 C.ar    1  UNL1        0.1480
     16 N          67.2773   95.2246    7.3254 N.pl3   1  UNL1       -0.3413
     17 N          68.1556   93.0172    8.3769 N.ar    1  UNL1       -0.2078
     18 C          68.3333   92.1283    9.5720 C.ar    1  UNL1        0.2015
     19 N          67.8103   92.5579   10.9106 N.ar    1  UNL1       -0.2048
     20 C          67.1097   93.8764   11.0542 C.ar    1  UNL1        0.1674
     21 H          66.8175   96.0900    7.4196 H       1  UNL1        0.1438
     22 H          67.6206   94.9427    6.4468 H       1  UNL1        0.1438
     23 C          63.0206   88.7912   12.3317 C.3     1  UNL1        0.1540
     24 C          62.9132   89.9375   11.3702 C.3     1  UNL1        0.0646
     25 C          61.5909   90.6107   11.1504 C.3     1  UNL1        0.1448
     26 O          60.5669   89.9782   10.2552 O.3     1  UNL1       -0.3537
     27 C          60.9660   88.8734    9.3225 C.3     1  UNL1        0.1422
     28 C          60.0012   87.7671    9.0138 C.3     1  UNL1        0.0321
     29 C          60.5025   86.3662    8.8231 C.3     1  UNL1        0.0026
     30 C          61.8229   85.9563    9.4049 C.3     1  UNL1        0.0001
     31 C          61.8853   85.3709   10.7845 C.3     1  UNL1        0.0000
     32 C          63.1313   84.6768   11.2491 C.3     1  UNL1        0.0000
     33 C          63.8337   83.7101   10.3424 C.3     1  UNL1        0.0000
     34 C          63.7685   82.2377   10.6211 C.3     1  UNL1        0.0000
     35 C          62.7191   81.6949   11.5452 C.3     1  UNL1        0.0000
     36 C          63.1132   80.8106   12.6909 C.3     1  UNL1        0.0000
     37 C          62.4458   80.9693   14.0248 C.3     1  UNL1        0.0000
     38 C          61.9188   82.3093   14.4451 C.3     1  UNL1        0.0000
     39 C          62.8357   83.3084   15.0862 C.3     1  UNL1        0.0000
     40 C          64.1960   83.5585   14.5058 C.3     1  UNL1        0.0000
     41 C          64.1704   85.9781   15.4519 C.3     1  UNL1        0.0000
     42 C          64.8139   84.9220   14.6032 C.3     1  UNL1        0.0000
@<TRIPOS>BOND
     1    41    42    1
     2    42    40    1
     3    40    39    1
     4    39    38    1
     5    38    37    1
     6    37    36    1
     7    36    35    1
     8    35    34    1
     9    34    33    1
    10    33    32    1
    11    32    31    1
    12    31    30    1
    13    30    29    1
    14    29    28    1
    15    28    27    1
    16    27    26    1
    17    26    25    1
    18    25    24    1
    19    24    23    1
    20    23     1    1
    21     1     2    1
    22     2     3    2
    23     2     4    1
    24     2     6    1
    25     6     7    1
    26     7     8    1
    27     8     9    1
    28     8    10    1
    29    10    11    1
    30    11    12   ar
    31    12    13   ar
    32    13    14   ar
    33    14    15   ar
    34    15    16    1
    35    15    17   ar
    36    17    18   ar
    37    18    19   ar
    38    19    20   ar
    39    20    11   ar
    40    20    14   ar
    41     4     5    1
    42    16    21    1
    43    16    22    1
@<TRIPOS>MOLECULE
*****
 42 43 0 0 0
SMALL
GASTEIGER

@<TRIPOS>ATOM
      1 O          63.7157   85.8215   13.3654 O.3     1  UNL1       -0.2925
      2 P          64.0397   85.5030   14.7949 P.3     1  UNL1        0.3697
      3 O          63.3302   84.1881   14.6628 O.2     1  UNL1       -0.2553
      4 O          64.3638   85.1845   16.2244 O.3     1  UNL1       -0.3218
      5 H          64.0010   84.3142   16.4520 H       1  UNL1        0.2198
      6 C          64.7493   86.8180   14.9270 C.3     1  UNL1        0.2579
      7 O          64.0143   88.0973   14.6569 O.3     1  UNL1       -0.3426
      8 C          63.5167   88.9320   15.7995 C.3     1  UNL1        0.1387
      9 C          63.0932   88.2750   17.0797 C.3     1  UNL1        0.0342
     10 C          63.4425   90.4240   15.6619 C.3     1  UNL1        0.1384
     11 N          64.4559   91.1516   14.8291 N.ar    1  UNL1       -0.2918
     12 C          65.7170   91.7890   15.3324 C.ar    1  UNL1        0.1798
     13 N          66.4265   92.4009   14.1611 N.ar    1  UNL1       -0.2195
     14 C          65.6039   92.1418   12.9338 C.ar    1  UNL1        0.1481
     15 C          65.8065   92.5092   11.4937 C.ar    1  UNL1        0.1480
     16 N          67.0245   93.2813   11.0809 N.pl3   1  UNL1       -0.3413
     17 N          64.7912   92.1044   10.4665 N.ar    1  UNL1       -0.2078
     18 C          63.5733   91.3323   10.8793 C.ar    1  UNL1        0.2015
     19 N          63.3707   90.9650   12.3194 N.ar    1  UNL1       -0.2048
     20 C          64.3860   91.3697   13.3467 C.ar    1  UNL1        0.1674
     21 H          67.6909   93.5469   11.7551 H       1  UNL1        0.1438
     22 H          67.1575   93.5224   10.1357 H       1  UNL1        0.1438
     23 C          62.4405   85.3197   12.7556 C.3     1  UNL1        0.1540
     24 C          61.8001   86.0745   11.6286 C.3     1  UNL1        0.0646
     25 C          62.1680   87.5074   11.3811 C.3     1  UNL1        0.1448
     26 O          61.1451   88.5880   11.5714 O.3     1  UNL1       -0.3537
     27 C          59.9873   88.7000   10.6245 C.3     1  UNL1        0.1422
     28 C          60.0890   89.5835    9.4166 C.3     1  UNL1        0.0321
     29 C          59.9598   88.9941    8.0432 C.3     1  UNL1        0.0026
     30 C          58.9822   87.8845    7.7922 C.3     1  UNL1        0.0001
     31 C          59.4643   86.4673    7.6971 C.3     1  UNL1        0.0000
     32 C          60.8267   86.1026    8.2078 C.3     1  UNL1        0.0000
     33 C          61.7231   85.2210    7.3898 C.3     1  UNL1        0.0000
     34 C          63.1264   84.9496    7.8449 C.3     1  UNL1        0.0000
     35 C          63.3943   84.5891    9.2761 C.3     1  UNL1        0.0000
     36 C          63.9079   83.2229    9.6220 C.3     1  UNL1        0.0000
     37 C          64.0996   82.8352   11.0582 C.3     1  UNL1        0.0000
     38 C          63.0650   82.0019   11.7547 C.3     1  UNL1        0.0000
     39 C          63.4839   80.9797   12.7693 C.3     1  UNL1        0.0000
     40 C          62.5673   80.6298   13.9040 C.3     1  UNL1        0.0000
     41 C          59.9890   80.4515   14.1702 C.3     1  UNL1        0.0000
     42 C          61.2240   81.2883   14.0135 C.3     1  UNL1        0.0000
@<TRIPOS>BOND
     1    41    42    1
     2    42    40    1
     3    40    39    1
     4    39    38    1
     5    38    37    1
     6    37    36    1
     7    36    35    1
     8    35    34    1
     9    34    33    1
    10    33    32    1
    11    32    31    1
    12    31    30    1
    13    30    29    1
    14    29    28    1
    15    28    27    1
    16    27    26    1
    17    26    25    1
    18    25    24    1
    19    24    23    1
    20    23     1    1
    21     1     2    1
    22     2     3    2
    23     2     4    1
    24     2     6    1
    25     6     7    1
    26     7     8    1
    27     8     9    1
    28     8    10    1
    29    10    11    1
    30    11    12   ar
    31    12    13   ar
    32    13    14   ar
    33    14    15   ar
    34    15    16    1
    35    15    17   ar
    36    17    18   ar
    37    18    19   ar
    38    19    20   ar
    39    20    11   ar
    40    20    14   ar
    41     4     5    1
    42    16    21    1
    43    16    22    1
@<TRIPOS>MOLECULE
*****
 42 43 0 0 0
SMALL
GASTEIGER

@<TRIPOS>ATOM
      1 O          63.2959   88.9597   13.6864 O.3     1  UNL1       -0.2925
      2 P          63.4561   90.0997   14.6481 P.3     1  UNL1        0.3697
      3 O          62.2871   89.5949   15.4410 O.2     1  UNL1       -0.2553
      4 O          63.6162   91.2396   15.6098 O.3     1  UNL1       -0.3218
      5 H          62.9380   91.1776   16.3006 H       1  UNL1        0.2198
      6 C          64.6250   90.6044   13.8552 C.3     1  UNL1        0.2579
      7 O          64.8789   92.0790   13.7492 O.3     1  UNL1       -0.3426
      8 C          66.2328   92.6327   14.0812 C.3     1  UNL1        0.1387
      9 C          67.2772   91.7453   14.6908 C.3     1  UNL1        0.0342
     10 C          66.5423   94.0740   13.8036 C.3     1  UNL1        0.1384
     11 N          66.5619   94.5783   12.3910 N.ar    1  UNL1       -0.2918
     12 C          66.0000   95.8845   11.9133 C.ar    1  UNL1        0.1798
     13 N          66.2377   95.9783   10.4352 N.ar    1  UNL1       -0.2195
     14 C          66.9464   94.7302    9.9994 C.ar    1  UNL1        0.1481
     15 C          67.4351   94.2698    8.6581 C.ar    1  UNL1        0.1480
     16 N          67.2347   95.1350    7.4494 N.pl3   1  UNL1       -0.3413
     17 N          68.1243   92.9441    8.5256 N.ar    1  UNL1       -0.2078
     18 C          68.3247   92.0788    9.7344 C.ar    1  UNL1        0.2015
     19 N          67.8359   92.5392   11.0757 N.ar    1  UNL1       -0.2048
     20 C          67.1468   93.8649   11.2082 C.ar    1  UNL1        0.1674
     21 H          66.7824   96.0051    7.5364 H       1  UNL1        0.1438
     22 H          67.5555   94.8328    6.5690 H       1  UNL1        0.1438
     23 C          63.3132   89.2170   12.2088 C.3     1  UNL1        0.1540
     24 C          62.2617   88.6083   11.3291 C.3     1  UNL1        0.0646
     25 C          61.2985   89.4903   10.5914 C.3     1  UNL1        0.1448
     26 O          61.0746   89.2919    9.1215 O.3     1  UNL1       -0.3537
     27 C          59.7625   88.7586    8.6279 C.3     1  UNL1        0.1422
     28 C          59.4536   87.2958    8.7500 C.3     1  UNL1        0.0321
     29 C          59.6963   86.3785    7.5882 C.3     1  UNL1        0.0026
     30 C          60.9531   85.5619    7.5272 C.3     1  UNL1        0.0001
     31 C          62.1530   85.9710    8.3290 C.3     1  UNL1        0.0000
     32 C          63.1706   84.9455    8.7324 C.3     1  UNL1        0.0000
     33 C          63.1885   84.4187   10.1368 C.3     1  UNL1        0.0000
     34 C          62.2872   85.0193   11.1746 C.3     1  UNL1        0.0000
     35 C          62.4332   84.6241   12.6141 C.3     1  UNL1        0.0000
     36 C          63.7512   84.7964   13.3093 C.3     1  UNL1        0.0000
     37 C          64.6354   83.6081   13.5459 C.3     1  UNL1        0.0000
     38 C          64.4488   82.3609   12.7336 C.3     1  UNL1        0.0000
     39 C          63.6917   81.1994   13.3057 C.3     1  UNL1        0.0000
     40 C          62.2353   81.0255   12.9919 C.3     1  UNL1        0.0000
     41 C          60.0565   80.3499   14.2356 C.3     1  UNL1        0.0000
     42 C          61.2032   81.2981   14.0458 C.3     1  UNL1        0.0000
@<TRIPOS>BOND
     1    41    42    1
     2    42    40    1
     3    40    39    1
     4    39    38    1
     5    38    37    1
     6    37    36    1
     7    36    35    1
     8    35    34    1
     9    34    33    1
    10    33    32    1
    11    32    31    1
    12    31    30    1
    13    30    29    1
    14    29    28    1
    15    28    27    1
    16    27    26    1
    17    26    25    1
    18    25    24    1
    19    24    23    1
    20    23     1    1
    21     1     2    1
    22     2     3    2
    23     2     4    1
    24     2     6    1
    25     6     7    1
    26     7     8    1
    27     8     9    1
    28     8    10    1
    29    10    11    1
    30    11    12   ar
    31    12    13   ar
    32    13    14   ar
    33    14    15   ar
    34    15    16    1
    35    15    17   ar
    36    17    18   ar
    37    18    19   ar
    38    19    20   ar
    39    20    11   ar
    40    20    14   ar
    41     4     5    1
    42    16    21    1
    43    16    22    1
@<TRIPOS>MOLECULE
*****
 42 43 0 0 0
SMALL
GASTEIGER

@<TRIPOS>ATOM
      1 O          59.7503   88.4532   10.3417 O.3     1  UNL1       -0.2925
      2 P          60.3247   89.0577   11.5886 P.3     1  UNL1        0.3697
      3 O          58.9416   89.2260   12.1441 O.2     1  UNL1       -0.2553
      4 O          60.8990   89.6621   12.8355 O.3     1  UNL1       -0.3218
      5 H          60.1796   89.8950   13.4429 H       1  UNL1        0.2198
      6 C          61.7078   88.8893   11.0331 C.3     1  UNL1        0.2579
      7 O          62.8727   89.5509   11.7077 O.3     1  UNL1       -0.3426
      8 C          63.3113   90.9190   11.2764 C.3     1  UNL1        0.1387
      9 C          63.2472   91.3054    9.8284 C.3     1  UNL1        0.0342
     10 C          63.8142   91.9007   12.2931 C.3     1  UNL1        0.1384
     11 N          65.2890   92.0639   12.5126 N.ar    1  UNL1       -0.2918
     12 C          66.3437   92.0717   11.4460 C.ar    1  UNL1        0.1798
     13 N          67.6746   92.2606   12.1116 N.ar    1  UNL1       -0.2195
     14 C          67.4425   92.3696   13.5895 C.ar    1  UNL1        0.1481
     15 C          68.3832   92.5638   14.7416 C.ar    1  UNL1        0.1480
     16 N          69.8576   92.6853   14.4937 N.pl3   1  UNL1       -0.3413
     17 N          67.8495   92.6365   16.1415 N.ar    1  UNL1       -0.2078
     18 C          66.3752   92.5149   16.3894 C.ar    1  UNL1        0.2015
     19 N          65.4345   92.3207   15.2373 N.ar    1  UNL1       -0.2048
     20 C          65.9681   92.2480   13.8374 C.ar    1  UNL1        0.1674
     21 H          70.2078   92.6376   13.5748 H       1  UNL1        0.1438
     22 H          70.4750   92.8128   15.2498 H       1  UNL1        0.1438
     23 C          60.2069   88.9337    8.9961 C.3     1  UNL1        0.1540
     24 C          59.4674   88.5159    7.7598 C.3     1  UNL1        0.0646
     25 C          59.2201   87.0613    7.4894 C.3     1  UNL1        0.1448
     26 O          60.0711   86.0198    8.1535 O.3     1  UNL1       -0.3537
     27 C          61.0536   85.2263    7.3442 C.3     1  UNL1        0.1422
     28 C          62.5055   85.2220    7.7209 C.3     1  UNL1        0.0321
     29 C          62.9149   85.5202    9.1328 C.3     1  UNL1        0.0026
     30 C          63.0366   84.4060   10.1297 C.3     1  UNL1        0.0001
     31 C          64.1452   83.4036   10.0026 C.3     1  UNL1        0.0000
     32 C          63.9952   82.0388   10.6063 C.3     1  UNL1        0.0000
     33 C          62.7439   81.6822   11.3526 C.3     1  UNL1        0.0000
     34 C          62.7736   80.6033   12.3943 C.3     1  UNL1        0.0000
     35 C          62.9341   80.9625   13.8418 C.3     1  UNL1        0.0000
     36 C          61.9738   81.9160   14.4889 C.3     1  UNL1        0.0000
     37 C          62.4294   83.2915   14.8765 C.3     1  UNL1        0.0000
     38 C          62.6724   84.3269   13.8187 C.3     1  UNL1        0.0000
     39 C          64.0424   84.9116   13.6422 C.3     1  UNL1        0.0000
     40 C          64.6716   85.6972   14.7544 C.3     1  UNL1        0.0000
     41 C          64.5003   88.2869   14.6352 C.3     1  UNL1        0.0000
     42 C          64.0451   86.9802   15.2142 C.3     1  UNL1        0.0000
@<TRIPOS>BOND
     1    41    42    1
     2    42    40    1
     3    40    39    1
     4    39    38    1
     5    38    37    1
     6    37    36    1
     7    36    35    1
     8    35    34    1
     9    34    33    1
    10    33    32    1
    11    32    31    1
    12    31    30    1
    13    30    29    1
    14    29    28    1
    15    28    27    1
    16    27    26    1
    17    26    25    1
    18    25    24    1
    19    24    23    1
    20    23     1    1
    21     1     2    1
    22     2     3    2
    23     2     4    1
    24     2     6    1
    25     6     7    1
    26     7     8    1
    27     8     9    1
    28     8    10    1
    29    10    11    1
    30    11    12   ar
    31    12    13   ar
    32    13    14   ar
    33    14    15   ar
    34    15    16    1
    35    15    17   ar
    36    17    18   ar
    37    18    19   ar
    38    19    20   ar
    39    20    11   ar
    40    20    14   ar
    41     4     5    1
    42    16    21    1
    43    16    22    1
@<TRIPOS>MOLECULE
*****
 42 43 0 0 0
SMALL
GASTEIGER

@<TRIPOS>ATOM
      1 O          64.6877   91.8907   14.9854 O.3     1  UNL1       -0.2925
      2 P          63.8913   91.2176   16.0636 P.3     1  UNL1        0.3697
      3 O          64.1323   92.3869   16.9717 O.2     1  UNL1       -0.2553
      4 O          63.0948   90.5445   17.1418 O.3     1  UNL1       -0.3218
      5 H          63.0701   91.1124   17.9279 H       1  UNL1        0.2198
      6 C          63.6502   90.0483   15.1556 C.3     1  UNL1        0.2579
      7 O          64.1258   88.6816   15.5503 O.3     1  UNL1       -0.3426
      8 C          64.2009   87.5886   14.5257 C.3     1  UNL1        0.1387
      9 C          63.7597   87.8504   13.1161 C.3     1  UNL1        0.0342
     10 C          64.7174   86.2339   14.9106 C.3     1  UNL1        0.1384
     11 N          63.7904   85.0547   14.9269 N.ar    1  UNL1       -0.2918
     12 C          62.8063   84.7217   16.0088 C.ar    1  UNL1        0.1798
     13 N          62.0925   83.4627   15.6146 N.ar    1  UNL1       -0.2195
     14 C          62.6355   83.0176   14.2891 C.ar    1  UNL1        0.1481
     15 C          62.3099   81.8435   13.4142 C.ar    1  UNL1        0.1480
     16 N          61.2605   80.8595   13.8393 N.pl3   1  UNL1       -0.3413
     17 N          63.0338   81.6533   12.1143 N.ar    1  UNL1       -0.2078
     18 C          64.0832   82.6372   11.6893 C.ar    1  UNL1        0.2015
     19 N          64.4087   83.8113   12.5641 N.ar    1  UNL1       -0.2048
     20 C          63.6849   84.0015   13.8640 C.ar    1  UNL1        0.1674
     21 H          60.7855   80.9844   14.6925 H       1  UNL1        0.1438
     22 H          61.0469   80.0889   13.2650 H       1  UNL1        0.1438
     23 C          66.0948   92.3333   15.2576 C.3     1  UNL1        0.1540
     24 C          67.2478   91.5542   14.6976 C.3     1  UNL1        0.0646
     25 C          67.8386   91.9367   13.3730 C.3     1  UNL1        0.1448
     26 O          67.1697   92.9786   12.5263 O.3     1  UNL1       -0.3537
     27 C          66.8775   92.6973   11.0822 C.3     1  UNL1        0.1422
     28 C          65.5269   93.0178   10.5140 C.3     1  UNL1        0.0321
     29 C          64.4678   91.9572   10.4531 C.3     1  UNL1        0.0026
     30 C          63.8760   91.4148   11.7202 C.3     1  UNL1        0.0001
     31 C          62.6308   90.5800   11.6692 C.3     1  UNL1        0.0000
     32 C          62.0878   90.1229   10.3477 C.3     1  UNL1        0.0000
     33 C          62.3976   88.7436    9.8462 C.3     1  UNL1        0.0000
     34 C          61.4568   87.6117   10.1351 C.3     1  UNL1        0.0000
     35 C          61.4398   86.4046    9.2448 C.3     1  UNL1        0.0000
     36 C          60.5066   86.3509    8.0717 C.3     1  UNL1        0.0000
     37 C          59.3217   87.2688    8.0134 C.3     1  UNL1        0.0000
     38 C          59.5137   88.7220    7.6951 C.3     1  UNL1        0.0000
     39 C          59.0339   89.2726    6.3849 C.3     1  UNL1        0.0000
     40 C          59.6894   90.4867    5.7964 C.3     1  UNL1        0.0000
     41 C          57.4351   91.5032    4.9994 C.3     1  UNL1        0.0000
     42 C          58.9230   91.3733    4.8601 C.3     1  UNL1        0.0000
@<TRIPOS>BOND
     1    41    42    1
     2    42    40    1
     3    40    39    1
     4    39    38    1
     5    38    37    1
     6    37    36    1
     7    36    35    1
     8    35    34    1
     9    34    33    1
    10    33    32    1
    11    32    31    1
    12    31    30    1
    13    30    29    1
    14    29    28    1
    15    28    27    1
    16    27    26    1
    17    26    25    1
    18    25    24    1
    19    24    23    1
    20    23     1    1
    21     1     2    1
    22     2     3    2
    23     2     4    1
    24     2     6    1
    25     6     7    1
    26     7     8    1
    27     8     9    1
    28     8    10    1
    29    10    11    1
    30    11    12   ar
    31    12    13   ar
    32    13    14   ar
    33    14    15   ar
    34    15    16    1
    35    15    17   ar
    36    17    18   ar
    37    18    19   ar
    38    19    20   ar
    39    20    11   ar
    40    20    14   ar
    41     4     5    1
    42    16    21    1
    43    16    22    1
@<TRIPOS>MOLECULE
*****
 42 43 0 0 0
SMALL
GASTEIGER

@<TRIPOS>ATOM
      1 O          63.5747   88.7141   13.7632 O.3     1  UNL1       -0.2925
      2 P          63.5039   90.1803   13.4542 P.3     1  UNL1        0.3697
      3 O          62.7337   89.8794   12.2028 O.2     1  UNL1       -0.2553
      4 O          63.4332   91.6464   13.1453 O.3     1  UNL1       -0.3218
      5 H          62.9484   91.7790   12.3157 H       1  UNL1        0.2198
      6 C          64.2742   90.4811   14.7057 C.3     1  UNL1        0.2579
      7 O          65.7702   90.3724   14.7101 O.3     1  UNL1       -0.3426
      8 C          66.6123   91.6125   14.7646 C.3     1  UNL1        0.1387
      9 C          66.5436   92.5136   15.9619 C.3     1  UNL1        0.0342
     10 C          67.5230   91.9516   13.6219 C.3     1  UNL1        0.1384
     11 N          67.0765   92.9229   12.5697 N.ar    1  UNL1       -0.2918
     12 C          66.1077   94.0512   12.7656 C.ar    1  UNL1        0.1798
     13 N          65.9528   94.7621   11.4538 N.ar    1  UNL1       -0.2195
     14 C          66.8259   94.0731   10.4473 C.ar    1  UNL1        0.1481
     15 C          67.0783   94.3340    8.9919 C.ar    1  UNL1        0.1480
     16 N          66.3838   95.4707    8.3022 N.pl3   1  UNL1       -0.3413
     17 N          68.0251   93.4581    8.2262 N.ar    1  UNL1       -0.2078
     18 C          68.7196   92.3214    8.9159 C.ar    1  UNL1        0.2015
     19 N          68.4672   92.0606   10.3713 N.ar    1  UNL1       -0.2048
     20 C          67.5204   92.9364   11.1370 C.ar    1  UNL1        0.1674
     21 H          65.7624   96.0455    8.8048 H       1  UNL1        0.1438
     22 H          66.5494   95.6418    7.3470 H       1  UNL1        0.1438
     23 C          63.3333   87.7065   12.6786 C.3     1  UNL1        0.1540
     24 C          63.3630   86.2409   12.9963 C.3     1  UNL1        0.0646
     25 C          64.1150   85.7489   14.1972 C.3     1  UNL1        0.1448
     26 O          64.4753   84.2975   14.3137 O.3     1  UNL1       -0.3537
     27 C          63.5980   83.3675   15.0982 C.3     1  UNL1        0.1422
     28 C          62.8048   82.3091   14.3906 C.3     1  UNL1        0.0321
     29 C          62.4204   82.4955   12.9527 C.3     1  UNL1        0.0026
     30 C          63.0531   81.6455   11.8910 C.3     1  UNL1        0.0001
     31 C          64.1491   82.2072   11.0348 C.3     1  UNL1        0.0000
     32 C          64.0551   83.6142   10.5234 C.3     1  UNL1        0.0000
     33 C          63.7025   83.8684    9.0878 C.3     1  UNL1        0.0000
     34 C          63.0872   85.1763    8.6869 C.3     1  UNL1        0.0000
     35 C          62.2096   85.9189    9.6503 C.3     1  UNL1        0.0000
     36 C          61.7859   87.3257    9.3478 C.3     1  UNL1        0.0000
     37 C          60.3555   87.6211    9.0062 C.3     1  UNL1        0.0000
     38 C          59.9857   88.9453    8.4065 C.3     1  UNL1        0.0000
     39 C          59.2342   88.9977    7.1094 C.3     1  UNL1        0.0000
     40 C          59.5105   90.0964    6.1263 C.3     1  UNL1        0.0000
     41 C          58.5858   91.9867    4.6025 C.3     1  UNL1        0.0000
     42 C          58.3867   90.6896    5.3292 C.3     1  UNL1        0.0000
@<TRIPOS>BOND
     1    41    42    1
     2    42    40    1
     3    40    39    1
     4    39    38    1
     5    38    37    1
     6    37    36    1
     7    36    35    1
     8    35    34    1
     9    34    33    1
    10    33    32    1
    11    32    31    1
    12    31    30    1
    13    30    29    1
    14    29    28    1
    15    28    27    1
    16    27    26    1
    17    26    25    1
    18    25    24    1
    19    24    23    1
    20    23     1    1
    21     1     2    1
    22     2     3    2
    23     2     4    1
    24     2     6    1
    25     6     7    1
    26     7     8    1
    27     8     9    1
    28     8    10    1
    29    10    11    1
    30    11    12   ar
    31    12    13   ar
    32    13    14   ar
    33    14    15   ar
    34    15    16    1
    35    15    17   ar
    36    17    18   ar
    37    18    19   ar
    38    19    20   ar
    39    20    11   ar
    40    20    14   ar
    41     4     5    1
    42    16    21    1
    43    16    22    1
@<TRIPOS>MOLECULE
*****
 42 43 0 0 0
SMALL
GASTEIGER

@<TRIPOS>ATOM
      1 O          61.1695   89.2508   11.8006 O.3     1  UNL1       -0.2925
      2 P          61.9428   90.2797   11.0304 P.3     1  UNL1        0.3697
      3 O          61.2126   89.8916    9.7789 O.2     1  UNL1       -0.2553
      4 O          62.7161   91.3086   10.2601 O.3     1  UNL1       -0.3218
      5 H          62.4376   91.2938    9.3311 H       1  UNL1        0.2198
      6 C          62.6730   90.6677   12.2818 C.3     1  UNL1        0.2579
      7 O          63.4039   89.6269   13.0771 O.3     1  UNL1       -0.3426
      8 C          64.1643   90.0209   14.3086 C.3     1  UNL1        0.1387
      9 C          63.5059   89.9416   15.6540 C.3     1  UNL1        0.0342
     10 C          65.5832   90.4942   14.1946 C.3     1  UNL1        0.1384
     11 N          65.8720   91.9441   13.9406 N.ar    1  UNL1       -0.2918
     12 C          66.2346   92.9657   14.9774 C.ar    1  UNL1        0.1798
     13 N          66.4356   94.2798   14.2826 N.ar    1  UNL1       -0.2195
     14 C          66.1974   94.0704   12.8166 C.ar    1  UNL1        0.1481
     15 C          66.2526   95.0077   11.6468 C.ar    1  UNL1        0.1480
     16 N          66.6010   96.4513   11.8582 N.pl3   1  UNL1       -0.3413
     17 N          65.9595   94.5014   10.2656 N.ar    1  UNL1       -0.2078
     18 C          65.6112   93.0578   10.0542 C.ar    1  UNL1        0.2015
     19 N          65.5560   92.1205   11.2240 N.ar    1  UNL1       -0.2048
     20 C          65.8491   92.6268   12.6052 C.ar    1  UNL1        0.1674
     21 H          66.7933   96.7836   12.7647 H       1  UNL1        0.1438
     22 H          66.6372   97.0664   11.0904 H       1  UNL1        0.1438
     23 C          60.4690   88.1405   11.0750 C.3     1  UNL1        0.1540
     24 C          61.0126   86.7439   11.1366 C.3     1  UNL1        0.0646
     25 C          62.3730   86.4935   11.7168 C.3     1  UNL1        0.1448
     26 O          62.5752   85.3799   12.7011 O.3     1  UNL1       -0.3537
     27 C          63.8451   85.3026   13.4957 C.3     1  UNL1        0.1422
     28 C          64.3360   83.9773   13.9982 C.3     1  UNL1        0.0321
     29 C          63.5116   83.1939   14.9765 C.3     1  UNL1        0.0026
     30 C          62.0933   82.8357   14.6445 C.3     1  UNL1        0.0001
     31 C          61.7215   81.4054   14.3875 C.3     1  UNL1        0.0000
     32 C          62.6821   80.4963   13.6799 C.3     1  UNL1        0.0000
     33 C          62.8283   80.5738   12.1890 C.3     1  UNL1        0.0000
     34 C          62.9321   81.9093   11.5141 C.3     1  UNL1        0.0000
     35 C          64.1032   82.2126   10.6274 C.3     1  UNL1        0.0000
     36 C          64.2503   83.5758   10.0191 C.3     1  UNL1        0.0000
     37 C          63.0739   84.2349    9.3623 C.3     1  UNL1        0.0000
     38 C          63.2735   85.0774    8.1374 C.3     1  UNL1        0.0000
     39 C          62.3711   84.9031    6.9520 C.3     1  UNL1        0.0000
     40 C          60.8979   85.1506    7.0880 C.3     1  UNL1        0.0000
     41 C          58.9843   86.8218    7.6317 C.3     1  UNL1        0.0000
     42 C          60.4058   86.3743    7.8026 C.3     1  UNL1        0.0000
@<TRIPOS>BOND
     1    41    42    1
     2    42    40    1
     3    40    39    1
     4    39    38    1
     5    38    37    1
     6    37    36    1
     7    36    35    1
     8    35    34    1
     9    34    33    1
    10    33    32    1
    11    32    31    1
    12    31    30    1
    13    30    29    1
    14    29    28    1
    15    28    27    1
    16    27    26    1
    17    26    25    1
    18    25    24    1
    19    24    23    1
    20    23     1    1
    21     1     2    1
    22     2     3    2
    23     2     4    1
    24     2     6    1
    25     6     7    1
    26     7     8    1
    27     8     9    1
    28     8    10    1
    29    10    11    1
    30    11    12   ar
    31    12    13   ar
    32    13    14   ar
    33    14    15   ar
    34    15    16    1
    35    15    17   ar
    36    17    18   ar
    37    18    19   ar
    38    19    20   ar
    39    20    11   ar
    40    20    14   ar
    41     4     5    1
    42    16    21    1
    43    16    22    1
