@<TRIPOS>MOLECULE
*****
 38 41 0 0 0
SMALL
GASTEIGER

@<TRIPOS>ATOM
      1 N          59.1711   90.4836    5.8870 N.3     1  UNL1       -0.2689
      2 C          58.3468   91.4369    5.0735 C.3     1  UNL1        0.0727
      3 C          58.9741   92.1909    3.9386 C.3     1  UNL1        0.0217
      4 C          60.4256   91.9916    3.6172 C.3     1  UNL1        0.0251
      5 C          61.2499   91.0383    4.4307 C.3     1  UNL1        0.0217
      6 C          60.6226   90.2843    5.5656 C.3     1  UNL1        0.0727
      7 C          61.0529   92.7457    2.4823 C.ar    1  UNL1       -0.0224
      8 C          60.2027   93.5974    1.5870 C.ar    1  UNL1       -0.0041
      9 C          60.8299   94.3514    0.4521 C.ar    1  UNL1        0.0042
     10 C          62.3075   94.2537    0.2126 C.ar    1  UNL1        0.0537
     11 C          63.1577   93.4020    1.1079 C.ar    1  UNL1        0.0042
     12 C          62.5304   92.6480    2.2427 C.ar    1  UNL1       -0.0041
     13 C          62.9347   95.0078   -0.9223 C.2     1  UNL1        0.2495
     14 O          62.6676   96.4747   -1.0866 O.2     1  UNL1       -0.2698
     15 N          63.8290   94.2950   -1.8929 N.am    1  UNL1       -0.2794
     16 H          64.0043   93.3323   -1.7851 H       1  UNL1        0.1552
     17 C          64.4562   95.0491   -3.0278 C.ar    1  UNL1        0.0636
     18 C          64.0455   94.7565   -4.4405 C.ar    1  UNL1        0.0159
     19 C          64.6727   95.5106   -5.5754 C.ar    1  UNL1        0.0014
     20 C          65.7107   96.5572   -5.2976 C.ar    1  UNL1        0.0013
     21 C          66.1214   96.8498   -3.8849 C.ar    1  UNL1        0.0153
     22 C          65.4942   96.0957   -2.7500 C.ar    1  UNL1        0.0552
     23 N          65.9050   96.3883   -1.3373 N.pl3   1  UNL1       -0.3560
     24 H          66.5862   97.0752   -1.1550 H       1  UNL1        0.1424
     25 H          65.4933   95.8934   -0.5925 H       1  UNL1        0.1424
     26 C          58.5438   89.7296    7.0219 C.3     1  UNL1        0.0991
     27 C          61.0365   86.9342    9.5163 C.ar    1  UNL1        0.0533
     28 C          60.2285   86.3993    8.3713 C.ar    1  UNL1        0.0042
     29 C          59.3976   87.3311    7.5398 C.ar    1  UNL1       -0.0028
     30 C          59.3747   88.7978    7.8534 C.ar    1  UNL1       -0.0061
     31 C          60.1827   89.3326    8.9984 C.ar    1  UNL1       -0.0028
     32 C          61.0136   88.4008    9.8299 C.ar    1  UNL1        0.0042
     33 N          62.8455   85.0772    9.6866 N.am    1  UNL1       -0.3009
     34 C          61.8674   86.0024   10.3478 C.2     1  UNL1        0.2458
     35 O          61.7201   85.9957   11.8405 O.2     1  UNL1       -0.2701
     36 H          62.9422   85.0816    8.7069 H       1  UNL1        0.1497
     37 C          63.8764   82.7250   10.0794 C.3     1  UNL1        0.0230
     38 C          63.6764   84.1454   10.5181 C.3     1  UNL1        0.0898
@<TRIPOS>BOND
     1    37    38    1
     2    38    33    1
     3    33    34   am
     4    34    35    2
     5    34    27    1
     6    27    28   ar
     7    28    29   ar
     8    29    30   ar
     9    30    26    1
    10    26     1    1
    11     1     2    1
    12     2     3    1
    13     3     4    1
    14     4     7    1
    15     7     8   ar
    16     8     9   ar
    17     9    10   ar
    18    10    13    1
    19    13    14    2
    20    13    15   am
    21    15    17    1
    22    17    18   ar
    23    18    19   ar
    24    19    20   ar
    25    20    21   ar
    26    21    22   ar
    27    22    23    1
    28    10    11   ar
    29    11    12   ar
    30     4     5    1
    31     5     6    1
    32    30    31   ar
    33    31    32   ar
    34    32    27   ar
    35     6     1    1
    36    12     7   ar
    37    22    17   ar
    38    33    36    1
    39    15    16    1
    40    23    24    1
    41    23    25    1
@<TRIPOS>MOLECULE
*****
 38 41 0 0 0
SMALL
GASTEIGER

@<TRIPOS>ATOM
      1 N          59.1490   90.3547    5.9385 N.3     1  UNL1       -0.2689
      2 C          58.2941   91.3242    5.1773 C.3     1  UNL1        0.0727
      3 C          58.8832   92.1188    4.0497 C.3     1  UNL1        0.0217
      4 C          60.3272   91.9439    3.6831 C.3     1  UNL1        0.0251
      5 C          61.1821   90.9744    4.4442 C.3     1  UNL1        0.0217
      6 C          60.5930   90.1798    5.5719 C.3     1  UNL1        0.0727
      7 C          60.9163   92.7385    2.5554 C.ar    1  UNL1       -0.0224
      8 C          62.3517   92.5402    2.1679 C.ar    1  UNL1       -0.0041
      9 C          62.9407   93.3348    1.0402 C.ar    1  UNL1        0.0042
     10 C          62.0943   94.3276    0.3001 C.ar    1  UNL1        0.0537
     11 C          60.6589   94.5259    0.6876 C.ar    1  UNL1        0.0042
     12 C          60.0699   93.7313    1.8153 C.ar    1  UNL1       -0.0041
     13 C          62.6834   95.1222   -0.8276 C.2     1  UNL1        0.2495
     14 O          62.4588   96.6036   -0.8987 O.2     1  UNL1       -0.2698
     15 N          63.4970   94.4355   -1.8841 N.am    1  UNL1       -0.2794
     16 H          63.6444   93.4632   -1.8375 H       1  UNL1        0.1552
     17 C          64.0860   95.2301   -3.0118 C.ar    1  UNL1        0.0636
     18 C          65.3136   96.0611   -2.7826 C.ar    1  UNL1        0.0159
     19 C          65.9026   96.8557   -3.9102 C.ar    1  UNL1        0.0014
     20 C          65.2641   96.8193   -5.2671 C.ar    1  UNL1        0.0013
     21 C          64.0366   95.9883   -5.4963 C.ar    1  UNL1        0.0153
     22 C          63.4475   95.1937   -4.3686 C.ar    1  UNL1        0.0552
     23 N          62.2200   94.3626   -4.5978 N.pl3   1  UNL1       -0.3560
     24 H          61.8010   94.3388   -5.4884 H       1  UNL1        0.1424
     25 H          61.8334   93.8411   -3.8577 H       1  UNL1        0.1424
     26 C          58.5599   89.5602    7.0661 C.3     1  UNL1        0.0991
     27 C          61.2276   87.0662    9.6955 C.ar    1  UNL1        0.0533
     28 C          60.3788   86.4078    8.6486 C.ar    1  UNL1        0.0042
     29 C          59.4896   87.2391    7.7722 C.ar    1  UNL1       -0.0028
     30 C          59.4492   88.7288    7.9426 C.ar    1  UNL1       -0.0061
     31 C          60.2980   89.3872    8.9894 C.ar    1  UNL1       -0.0028
     32 C          61.1873   88.5559    9.8659 C.ar    1  UNL1        0.0042
     33 N          62.5439   84.8679   10.1258 N.am    1  UNL1       -0.3009
     34 C          62.1169   86.2349   10.5719 C.2     1  UNL1        0.2458
     35 O          62.5791   86.7705   11.8946 O.2     1  UNL1       -0.2701
     36 H          62.2405   84.5164    9.2577 H       1  UNL1        0.1497
     37 C          64.2776   82.9526   10.4007 C.3     1  UNL1        0.0230
     38 C          63.4331   84.0366   11.0022 C.3     1  UNL1        0.0898
@<TRIPOS>BOND
     1    37    38    1
     2    38    33    1
     3    33    34   am
     4    34    35    2
     5    34    27    1
     6    27    28   ar
     7    28    29   ar
     8    29    30   ar
     9    30    26    1
    10    26     1    1
    11     1     2    1
    12     2     3    1
    13     3     4    1
    14     4     7    1
    15     7     8   ar
    16     8     9   ar
    17     9    10   ar
    18    10    13    1
    19    13    14    2
    20    13    15   am
    21    15    17    1
    22    17    18   ar
    23    18    19   ar
    24    19    20   ar
    25    20    21   ar
    26    21    22   ar
    27    22    23    1
    28    10    11   ar
    29    11    12   ar
    30     4     5    1
    31     5     6    1
    32    30    31   ar
    33    31    32   ar
    34    32    27   ar
    35     6     1    1
    36    12     7   ar
    37    22    17   ar
    38    33    36    1
    39    15    16    1
    40    23    24    1
    41    23    25    1
@<TRIPOS>MOLECULE
*****
 38 41 0 0 0
SMALL
GASTEIGER

@<TRIPOS>ATOM
      1 N          59.1232   90.2091    6.0249 N.3     1  UNL1       -0.2689
      2 C          58.2865   91.2792    5.3885 C.3     1  UNL1        0.0727
      3 C          58.8422   92.0923    4.2571 C.3     1  UNL1        0.0217
      4 C          60.2347   91.8353    3.7621 C.3     1  UNL1        0.0251
      5 C          61.0714   90.7653    4.3985 C.3     1  UNL1        0.0217
      6 C          60.5156   89.9522    5.5299 C.3     1  UNL1        0.0727
      7 C          60.7904   92.6485    2.6307 C.ar    1  UNL1       -0.0224
      8 C          60.0435   93.8503    2.1332 C.ar    1  UNL1       -0.0041
      9 C          60.5992   94.6634    1.0019 C.ar    1  UNL1        0.0042
     10 C          61.9019   94.2746    0.3680 C.ar    1  UNL1        0.0537
     11 C          62.6489   93.0727    0.8654 C.ar    1  UNL1        0.0042
     12 C          62.0931   92.2596    1.9968 C.ar    1  UNL1       -0.0041
     13 C          62.4576   95.0877   -0.7635 C.2     1  UNL1        0.2495
     14 O          62.5627   96.5785   -0.6348 O.2     1  UNL1       -0.2698
     15 N          62.9083   94.4100   -2.0235 N.am    1  UNL1       -0.2794
     16 H          62.8394   93.4316   -2.1079 H       1  UNL1        0.1552
     17 C          63.4640   95.2232   -3.1548 C.ar    1  UNL1        0.0636
     18 C          64.9438   95.4436   -3.2640 C.ar    1  UNL1        0.0159
     19 C          65.4995   96.2567   -4.3953 C.ar    1  UNL1        0.0014
     20 C          64.5755   96.8495   -5.4175 C.ar    1  UNL1        0.0013
     21 C          63.0958   96.6291   -5.3084 C.ar    1  UNL1        0.0153
     22 C          62.5400   95.8160   -4.1770 C.ar    1  UNL1        0.0552
     23 N          61.0604   95.5956   -4.0678 N.pl3   1  UNL1       -0.3560
     24 H          60.4539   95.9847   -4.7388 H       1  UNL1        0.1424
     25 H          60.6956   95.0619   -3.3253 H       1  UNL1        0.1424
     26 C          58.5674   89.3961    7.1563 C.3     1  UNL1        0.0991
     27 C          61.2749   86.6963    9.5292 C.ar    1  UNL1        0.0533
     28 C          60.8453   88.0159   10.0984 C.ar    1  UNL1        0.0042
     29 C          59.9428   88.9158    9.3075 C.ar    1  UNL1       -0.0028
     30 C          59.4699   88.4962    7.9472 C.ar    1  UNL1       -0.0061
     31 C          59.8996   87.1766    7.3780 C.ar    1  UNL1       -0.0028
     32 C          60.8021   86.2767    8.1690 C.ar    1  UNL1        0.0042
     33 N          62.2264   85.9093   11.8151 N.am    1  UNL1       -0.3009
     34 C          62.1774   85.7964   10.3202 C.2     1  UNL1        0.2458
     35 O          63.0310   84.7836    9.6163 O.2     1  UNL1       -0.2701
     36 H          61.6661   86.5741   12.2771 H       1  UNL1        0.1497
     37 C          63.8634   85.5448   13.7994 C.3     1  UNL1        0.0230
     38 C          63.1289   85.0094   12.6061 C.3     1  UNL1        0.0898
@<TRIPOS>BOND
     1    37    38    1
     2    38    33    1
     3    33    34   am
     4    34    35    2
     5    34    27    1
     6    27    28   ar
     7    28    29   ar
     8    29    30   ar
     9    30    26    1
    10    26     1    1
    11     1     2    1
    12     2     3    1
    13     3     4    1
    14     4     7    1
    15     7     8   ar
    16     8     9   ar
    17     9    10   ar
    18    10    13    1
    19    13    14    2
    20    13    15   am
    21    15    17    1
    22    17    18   ar
    23    18    19   ar
    24    19    20   ar
    25    20    21   ar
    26    21    22   ar
    27    22    23    1
    28    10    11   ar
    29    11    12   ar
    30     4     5    1
    31     5     6    1
    32    30    31   ar
    33    31    32   ar
    34    32    27   ar
    35     6     1    1
    36    12     7   ar
    37    22    17   ar
    38    33    36    1
    39    15    16    1
    40    23    24    1
    41    23    25    1
@<TRIPOS>MOLECULE
*****
 38 41 0 0 0
SMALL
GASTEIGER

@<TRIPOS>ATOM
      1 N          59.0528   91.9104    3.9464 N.3     1  UNL1       -0.2689
      2 C          57.9745   91.3376    4.8178 C.3     1  UNL1        0.0727
      3 C          58.3345   90.4405    5.9647 C.3     1  UNL1        0.0217
      4 C          59.7728   90.1161    6.2404 C.3     1  UNL1        0.0251
      5 C          60.8511   90.6888    5.3690 C.3     1  UNL1        0.0217
      6 C          60.4911   91.5859    4.2220 C.3     1  UNL1        0.0727
      7 C          60.1328   89.2189    7.3874 C.ar    1  UNL1       -0.0224
      8 C          59.7709   87.7639    7.3437 C.ar    1  UNL1       -0.0041
      9 C          60.1309   86.8668    8.4907 C.ar    1  UNL1        0.0042
     10 C          60.8527   87.4248    9.6814 C.ar    1  UNL1        0.0537
     11 C          61.2146   88.8798    9.7250 C.ar    1  UNL1        0.0042
     12 C          60.8546   89.7769    8.5780 C.ar    1  UNL1       -0.0041
     13 C          61.2127   86.5276   10.8284 C.2     1  UNL1        0.2495
     14 O          60.5046   86.6703   12.1430 O.2     1  UNL1       -0.2698
     15 N          62.2808   85.4879   10.6608 N.am    1  UNL1       -0.2794
     16 H          62.7455   85.3942    9.7980 H       1  UNL1        0.1552
     17 C          62.6407   84.5908   11.8078 C.ar    1  UNL1        0.0636
     18 C          62.4173   83.1113   11.7015 C.ar    1  UNL1        0.0159
     19 C          62.7772   82.2142   12.8485 C.ar    1  UNL1        0.0014
     20 C          63.3605   82.7965   14.1018 C.ar    1  UNL1        0.0013
     21 C          63.5839   84.2759   14.2081 C.ar    1  UNL1        0.0153
     22 C          63.2239   85.1731   13.0610 C.ar    1  UNL1        0.0552
     23 N          63.4473   86.6526   13.1673 N.pl3   1  UNL1       -0.3560
     24 H          63.8301   87.0348   13.9899 H       1  UNL1        0.1424
     25 H          63.2111   87.2414   12.4145 H       1  UNL1        0.1424
     26 C          58.6928   92.8075    2.7994 C.3     1  UNL1        0.0991
     27 C          61.7800   93.8333   -0.3098 C.ar    1  UNL1        0.0533
     28 C          60.9391   92.6011   -0.4658 C.ar    1  UNL1        0.0042
     29 C          59.9100   92.2591    0.5706 C.ar    1  UNL1       -0.0028
     30 C          59.7219   93.1494    1.7630 C.ar    1  UNL1       -0.0061
     31 C          60.5627   94.3817    1.9190 C.ar    1  UNL1       -0.0028
     32 C          61.5918   94.7236    0.8827 C.ar    1  UNL1        0.0042
     33 N          62.9531   93.3208   -2.5705 N.am    1  UNL1       -0.3009
     34 C          62.8090   94.1753   -1.3461 C.2     1  UNL1        0.2458
     35 O          63.6940   95.3717   -1.1582 O.2     1  UNL1       -0.2701
     36 H          62.3723   92.5356   -2.6939 H       1  UNL1        0.1497
     37 C          64.5626   92.5836   -4.4721 C.3     1  UNL1        0.0230
     38 C          63.9822   93.6628   -3.6069 C.3     1  UNL1        0.0898
@<TRIPOS>BOND
     1    37    38    1
     2    38    33    1
     3    33    34   am
     4    34    35    2
     5    34    27    1
     6    27    28   ar
     7    28    29   ar
     8    29    30   ar
     9    30    26    1
    10    26     1    1
    11     1     2    1
    12     2     3    1
    13     3     4    1
    14     4     7    1
    15     7     8   ar
    16     8     9   ar
    17     9    10   ar
    18    10    13    1
    19    13    14    2
    20    13    15   am
    21    15    17    1
    22    17    18   ar
    23    18    19   ar
    24    19    20   ar
    25    20    21   ar
    26    21    22   ar
    27    22    23    1
    28    10    11   ar
    29    11    12   ar
    30     4     5    1
    31     5     6    1
    32    30    31   ar
    33    31    32   ar
    34    32    27   ar
    35     6     1    1
    36    12     7   ar
    37    22    17   ar
    38    33    36    1
    39    15    16    1
    40    23    24    1
    41    23    25    1
@<TRIPOS>MOLECULE
*****
 38 41 0 0 0
SMALL
GASTEIGER

@<TRIPOS>ATOM
      1 N          59.3247   90.1270    6.1414 N.3     1  UNL1       -0.2689
      2 C          58.4092   91.1033    5.4638 C.3     1  UNL1        0.0727
      3 C          58.9089   91.9257    4.3132 C.3     1  UNL1        0.0217
      4 C          60.3240   91.7719    3.8402 C.3     1  UNL1        0.0251
      5 C          61.2394   90.7957    4.5177 C.3     1  UNL1        0.0217
      6 C          60.7398   89.9733    5.6683 C.3     1  UNL1        0.0727
      7 C          60.8237   92.5944    2.6895 C.ar    1  UNL1       -0.0224
      8 C          59.8520   93.3341    1.8186 C.ar    1  UNL1       -0.0041
      9 C          60.3517   94.1565    0.6680 C.ar    1  UNL1        0.0042
     10 C          61.8230   94.2392    0.3883 C.ar    1  UNL1        0.0537
     11 C          62.7947   93.4995    1.2592 C.ar    1  UNL1        0.0042
     12 C          62.2950   92.6770    2.4098 C.ar    1  UNL1       -0.0041
     13 C          62.3227   95.0617   -0.7624 C.2     1  UNL1        0.2495
     14 O          62.2866   96.5592   -0.6853 O.2     1  UNL1       -0.2698
     15 N          62.8585   94.3865   -1.9900 N.am    1  UNL1       -0.2794
     16 H          62.8822   93.4036   -2.0406 H       1  UNL1        0.1552
     17 C          63.3581   95.2090   -3.1406 C.ar    1  UNL1        0.0636
     18 C          64.7976   95.6275   -3.1942 C.ar    1  UNL1        0.0159
     19 C          65.2972   96.4499   -4.3447 C.ar    1  UNL1        0.0014
     20 C          64.3574   96.8540   -5.4418 C.ar    1  UNL1        0.0013
     21 C          62.9180   96.4356   -5.3882 C.ar    1  UNL1        0.0153
     22 C          62.4183   95.6130   -4.2376 C.ar    1  UNL1        0.0552
     23 N          60.9789   95.1946   -4.1841 N.pl3   1  UNL1       -0.3560
     24 H          60.3620   95.4598   -4.9041 H       1  UNL1        0.1424
     25 H          60.6509   94.6548   -3.4289 H       1  UNL1        0.1424
     26 C          58.8250   89.3046    7.2920 C.3     1  UNL1        0.0991
     27 C          61.6198   88.1790   10.6345 C.ar    1  UNL1        0.0533
     28 C          61.2305   89.6135   10.4334 C.ar    1  UNL1        0.0042
     29 C          60.2988   89.9887    9.3192 C.ar    1  UNL1       -0.0028
     30 C          59.7566   88.9294    8.4062 C.ar    1  UNL1       -0.0061
     31 C          60.1459   87.4949    8.6072 C.ar    1  UNL1       -0.0028
     32 C          61.0775   87.1197    9.7214 C.ar    1  UNL1        0.0042
     33 N          63.1171   88.8666   12.6432 N.am    1  UNL1       -0.3009
     34 C          62.5514   87.8038   11.7486 C.2     1  UNL1        0.2458
     35 O          62.9173   86.3658   11.9681 O.2     1  UNL1       -0.2701
     36 H          62.8770   89.8104   12.4991 H       1  UNL1        0.1497
     37 C          63.9535   89.1892   15.0818 C.3     1  UNL1        0.0230
     38 C          64.0488   88.4914   13.7574 C.3     1  UNL1        0.0898
@<TRIPOS>BOND
     1    37    38    1
     2    38    33    1
     3    33    34   am
     4    34    35    2
     5    34    27    1
     6    27    28   ar
     7    28    29   ar
     8    29    30   ar
     9    30    26    1
    10    26     1    1
    11     1     2    1
    12     2     3    1
    13     3     4    1
    14     4     7    1
    15     7     8   ar
    16     8     9   ar
    17     9    10   ar
    18    10    13    1
    19    13    14    2
    20    13    15   am
    21    15    17    1
    22    17    18   ar
    23    18    19   ar
    24    19    20   ar
    25    20    21   ar
    26    21    22   ar
    27    22    23    1
    28    10    11   ar
    29    11    12   ar
    30     4     5    1
    31     5     6    1
    32    30    31   ar
    33    31    32   ar
    34    32    27   ar
    35     6     1    1
    36    12     7   ar
    37    22    17   ar
    38    33    36    1
    39    15    16    1
    40    23    24    1
    41    23    25    1
@<TRIPOS>MOLECULE
*****
 38 41 0 0 0
SMALL
GASTEIGER

@<TRIPOS>ATOM
      1 N          59.4229   90.0015    6.4018 N.3     1  UNL1       -0.2689
      2 C          58.3966   90.8366    5.6951 C.3     1  UNL1        0.0727
      3 C          58.7905   91.6614    4.5057 C.3     1  UNL1        0.0217
      4 C          60.2107   91.6511    4.0231 C.3     1  UNL1        0.0251
      5 C          61.2370   90.8161    4.7298 C.3     1  UNL1        0.0217
      6 C          60.8431   89.9913    5.9191 C.3     1  UNL1        0.0727
      7 C          60.6046   92.4760    2.8337 C.ar    1  UNL1       -0.0224
      8 C          62.0542   92.6579    2.4940 C.ar    1  UNL1       -0.0041
      9 C          62.4480   93.4827    1.3047 C.ar    1  UNL1        0.0042
     10 C          61.3922   94.1256    0.4550 C.ar    1  UNL1        0.0537
     11 C          59.9426   93.9437    0.7947 C.ar    1  UNL1        0.0042
     12 C          59.5488   93.1189    1.9840 C.ar    1  UNL1       -0.0041
     13 C          61.7861   94.9504   -0.7344 C.2     1  UNL1        0.2495
     14 O          61.3050   96.3658   -0.8580 O.2     1  UNL1       -0.2698
     15 N          62.6610   94.3599   -1.8000 N.am    1  UNL1       -0.2794
     16 H          62.9768   93.4309   -1.7189 H       1  UNL1        0.1552
     17 C          63.0549   95.1847   -2.9893 C.ar    1  UNL1        0.0636
     18 C          62.0929   95.3700   -4.1253 C.ar    1  UNL1        0.0159
     19 C          62.4868   96.1948   -5.3147 C.ar    1  UNL1        0.0014
     20 C          63.8425   96.8344   -5.3680 C.ar    1  UNL1        0.0013
     21 C          64.8044   96.6492   -4.2321 C.ar    1  UNL1        0.0153
     22 C          64.4106   95.8244   -3.0427 C.ar    1  UNL1        0.0552
     23 N          65.3725   95.6391   -1.9068 N.pl3   1  UNL1       -0.3560
     24 H          66.2623   96.0590   -1.9418 H       1  UNL1        0.1424
     25 H          65.1140   95.0978   -1.1262 H       1  UNL1        0.1424
     26 C          59.0290   89.1767    7.5911 C.3     1  UNL1        0.0991
     27 C          61.7430   88.9546   11.1737 C.ar    1  UNL1        0.0533
     28 C          61.5573   87.7512   10.2977 C.ar    1  UNL1        0.0042
     29 C          60.6526   87.8253    9.1035 C.ar    1  UNL1       -0.0028
     30 C          59.9337   89.1027    8.7853 C.ar    1  UNL1       -0.0061
     31 C          60.1193   90.3060    9.6613 C.ar    1  UNL1       -0.0028
     32 C          61.0240   90.2320   10.8555 C.ar    1  UNL1        0.0042
     33 N          62.6967   90.0189   13.3434 N.am    1  UNL1       -0.3009
     34 C          62.6477   88.8805   12.3679 C.2     1  UNL1        0.2458
     35 O          63.5033   87.6681   12.5866 O.2     1  UNL1       -0.2701
     36 H          62.1351   90.8147   13.1999 H       1  UNL1        0.1497
     37 C          63.0355   89.6194   15.8882 C.3     1  UNL1        0.0230
     38 C          63.6013   89.9448   14.5376 C.3     1  UNL1        0.0898
@<TRIPOS>BOND
     1    37    38    1
     2    38    33    1
     3    33    34   am
     4    34    35    2
     5    34    27    1
     6    27    28   ar
     7    28    29   ar
     8    29    30   ar
     9    30    26    1
    10    26     1    1
    11     1     2    1
    12     2     3    1
    13     3     4    1
    14     4     7    1
    15     7     8   ar
    16     8     9   ar
    17     9    10   ar
    18    10    13    1
    19    13    14    2
    20    13    15   am
    21    15    17    1
    22    17    18   ar
    23    18    19   ar
    24    19    20   ar
    25    20    21   ar
    26    21    22   ar
    27    22    23    1
    28    10    11   ar
    29    11    12   ar
    30     4     5    1
    31     5     6    1
    32    30    31   ar
    33    31    32   ar
    34    32    27   ar
    35     6     1    1
    36    12     7   ar
    37    22    17   ar
    38    33    36    1
    39    15    16    1
    40    23    24    1
    41    23    25    1
@<TRIPOS>MOLECULE
*****
 38 41 0 0 0
SMALL
GASTEIGER

@<TRIPOS>ATOM
      1 N          59.0493   91.7351    4.2000 N.3     1  UNL1       -0.2689
      2 C          57.9968   91.1566    5.0987 C.3     1  UNL1        0.0727
      3 C          58.3888   90.2412    6.2204 C.3     1  UNL1        0.0217
      4 C          59.8333   89.9041    6.4434 C.3     1  UNL1        0.0251
      5 C          60.8858   90.4826    5.5448 C.3     1  UNL1        0.0217
      6 C          60.4939   91.3981    4.4230 C.3     1  UNL1        0.0727
      7 C          60.2253   88.9886    7.5652 C.ar    1  UNL1       -0.0224
      8 C          60.8086   89.5544    8.8260 C.ar    1  UNL1       -0.0041
      9 C          61.2006   88.6389    9.9477 C.ar    1  UNL1        0.0042
     10 C          61.0092   87.1577    9.8085 C.ar    1  UNL1        0.0537
     11 C          60.4259   86.5919    8.5477 C.ar    1  UNL1        0.0042
     12 C          60.0340   87.5074    7.4261 C.ar    1  UNL1       -0.0041
     13 C          61.4012   86.2422   10.9303 C.2     1  UNL1        0.2495
     14 O          60.8700   86.4799   12.3128 O.2     1  UNL1       -0.2698
     15 N          62.3244   85.0891   10.6695 N.am    1  UNL1       -0.2794
     16 H          62.6731   84.9331    9.7622 H       1  UNL1        0.1552
     17 C          62.7164   84.1737   11.7913 C.ar    1  UNL1        0.0636
     18 C          62.3078   84.4942   13.1986 C.ar    1  UNL1        0.0159
     19 C          62.6998   83.5788   14.3203 C.ar    1  UNL1        0.0014
     20 C          63.5003   82.3428   14.0348 C.ar    1  UNL1        0.0013
     21 C          63.9088   82.0222   12.6276 C.ar    1  UNL1        0.0153
     22 C          63.5169   82.9377   11.5058 C.ar    1  UNL1        0.0552
     23 N          63.9254   82.6171   10.0986 N.pl3   1  UNL1       -0.3560
     24 H          64.4508   81.8058    9.9113 H       1  UNL1        0.1424
     25 H          63.6682   83.2179    9.3624 H       1  UNL1        0.1424
     26 C          58.6573   92.6505    3.0783 C.3     1  UNL1        0.0991
     27 C          61.7530   94.0433    0.1241 C.ar    1  UNL1        0.0533
     28 C          61.5516   94.7916    1.4084 C.ar    1  UNL1        0.0042
     29 C          60.5197   94.3274    2.3931 C.ar    1  UNL1       -0.0028
     30 C          59.6892   93.1148    2.0936 C.ar    1  UNL1       -0.0061
     31 C          59.8906   92.3664    0.8093 C.ar    1  UNL1       -0.0028
     32 C          60.9225   92.8307   -0.1754 C.ar    1  UNL1        0.0042
     33 N          62.9335   95.9702   -1.1577 N.am    1  UNL1       -0.3009
     34 C          62.7849   94.5075   -0.8606 C.2     1  UNL1        0.2458
     35 O          63.6682   93.5090   -1.5482 O.2     1  UNL1       -0.2701
     36 H          62.3538   96.6256   -0.7064 H       1  UNL1        0.1497
     37 C          65.4054   96.5272   -1.7322 C.3     1  UNL1        0.0230
     38 C          63.9655   96.4345   -2.1424 C.3     1  UNL1        0.0898
@<TRIPOS>BOND
     1    37    38    1
     2    38    33    1
     3    33    34   am
     4    34    35    2
     5    34    27    1
     6    27    28   ar
     7    28    29   ar
     8    29    30   ar
     9    30    26    1
    10    26     1    1
    11     1     2    1
    12     2     3    1
    13     3     4    1
    14     4     7    1
    15     7     8   ar
    16     8     9   ar
    17     9    10   ar
    18    10    13    1
    19    13    14    2
    20    13    15   am
    21    15    17    1
    22    17    18   ar
    23    18    19   ar
    24    19    20   ar
    25    20    21   ar
    26    21    22   ar
    27    22    23    1
    28    10    11   ar
    29    11    12   ar
    30     4     5    1
    31     5     6    1
    32    30    31   ar
    33    31    32   ar
    34    32    27   ar
    35     6     1    1
    36    12     7   ar
    37    22    17   ar
    38    33    36    1
    39    15    16    1
    40    23    24    1
    41    23    25    1
