@<TRIPOS>MOLECULE
*****
 43 48 0 0 0
SMALL
GASTEIGER

@<TRIPOS>ATOM
      1 N          62.3177   85.8581   10.7526 N.am    1  UNL1       -0.1909
      2 C          62.4656   87.1119   11.5627 C.2     1  UNL1        0.3173
      3 O          63.2535   87.2543   12.8311 O.2     1  UNL1       -0.2516
      4 N          61.6872   88.1983   10.8817 N.am    1  UNL1       -0.2544
      5 C          61.0582   87.6160    9.6506 C.3     1  UNL1        0.1341
      6 C          60.4969   86.8977    8.4595 C.3     1  UNL1        0.0446
      7 C          59.6304   87.6327    7.4802 C.3     1  UNL1        0.0745
      8 N          59.3252   89.0860    7.6921 N.3     1  UNL1       -0.2688
      9 C          59.8866   89.8043    8.8833 C.3     1  UNL1        0.0745
     10 C          60.7530   89.0693    9.8625 C.3     1  UNL1        0.0446
     11 C          61.4479   86.1697    9.5709 C.2     1  UNL1        0.2525
     12 O          61.0394   85.2044    8.4978 O.2     1  UNL1       -0.2724
     13 C          63.2579   82.5291   12.6977 C.ar    1  UNL1        0.1400
     14 C          64.1599   81.8636   11.7010 C.ar    1  UNL1        0.0370
     15 C          64.4478   82.5296   10.3882 C.ar    1  UNL1        0.0044
     16 C          63.8337   83.8611   10.0721 C.ar    1  UNL1        0.0156
     17 C          62.9318   84.5266   11.0687 C.ar    1  UNL1        0.0652
     18 C          62.6438   83.8606   12.3816 C.ar    1  UNL1        0.0522
     19 C          61.6294   81.2360   14.2553 C.3     1  UNL1        0.2525
     20 O          62.9699   81.8631   14.0105 O.3     1  UNL1       -0.4714
     21 C          61.5601   89.6178   11.3494 C.3     1  UNL1        0.1243
     22 C          62.7873   90.4016   11.7097 C.ar    1  UNL1        0.0252
     23 C          63.3533   90.3133   13.0960 C.ar    1  UNL1       -0.0004
     24 C          64.5805   91.0970   13.4563 C.ar    1  UNL1       -0.0001
     25 C          65.2417   91.9689   12.4304 C.ar    1  UNL1        0.0023
     26 C          64.6756   92.0572   11.0441 C.ar    1  UNL1        0.0294
     27 C          63.4484   91.2735   10.6838 C.ar    1  UNL1        0.1377
     28 F          62.8824   91.3618    9.2975 F       1  UNL1       -0.2044
     29 C          58.4587   89.8209    6.7128 C.3     1  UNL1        0.0991
     30 C          59.0857   90.6567    5.6365 C.ar    1  UNL1       -0.0061
     31 C          60.5529   90.5333    5.3500 C.ar    1  UNL1       -0.0029
     32 C          61.1798   91.3691    4.2737 C.ar    1  UNL1       -0.0002
     33 C          60.3395   92.3283    3.4839 C.ar    1  UNL1        0.0015
     34 C          58.8723   92.4517    3.7703 C.ar    1  UNL1       -0.0002
     35 C          58.2454   91.6159    4.8466 C.ar    1  UNL1       -0.0029
     36 C          60.9665   93.1640    2.4076 C.ar    1  UNL1        0.0199
     37 C          60.1198   94.0974    1.5939 C.ar    1  UNL1        0.0989
     38 N          60.7469   94.9331    0.5176 N.ar    1  UNL1       -0.2416
     39 C          62.2204   94.8355    0.2550 C.ar    1  UNL1        0.1091
     40 C          63.0671   93.9022    1.0687 C.ar    1  UNL1        0.0876
     41 C          62.4401   93.0665    2.1450 C.ar    1  UNL1        0.0134
     42 C          64.5406   93.8046    0.8061 C.1     1  UNL1        0.1020
     43 N          66.0143   93.7070    0.5434 N.1     1  UNL1       -0.1908
@<TRIPOS>BOND
     1    19    20    1
     2    20    13    1
     3    13    14   ar
     4    14    15   ar
     5    15    16   ar
     6    16    17   ar
     7    17     1    1
     8     1     2   am
     9     2     3    2
    10     2     4   am
    11     4    21    1
    12    21    22    1
    13    22    23   ar
    14    23    24   ar
    15    24    25   ar
    16    25    26   ar
    17    26    27   ar
    18    27    28    1
    19     4     5    1
    20     5     6    1
    21     6     7    1
    22     7     8    1
    23     8    29    1
    24    29    30    1
    25    30    31   ar
    26    31    32   ar
    27    32    33   ar
    28    33    36    1
    29    36    37   ar
    30    37    38   ar
    31    38    39   ar
    32    39    40   ar
    33    40    42    1
    34    42    43    3
    35    40    41   ar
    36    33    34   ar
    37    34    35   ar
    38     8     9    1
    39     9    10    1
    40     5    11    1
    41    11    12    2
    42    17    18   ar
    43    18    13   ar
    44    11     1   am
    45    27    22   ar
    46    10     5    1
    47    35    30   ar
    48    41    36   ar
@<TRIPOS>MOLECULE
*****
 43 48 0 0 0
SMALL
GASTEIGER

@<TRIPOS>ATOM
      1 N          62.3126   85.9152   10.7392 N.am    1  UNL1       -0.1909
      2 C          62.4523   87.1755   11.5406 C.2     1  UNL1        0.3173
      3 O          63.2231   87.3269   12.8184 O.2     1  UNL1       -0.2516
      4 N          61.6858   88.2578   10.8398 N.am    1  UNL1       -0.2544
      5 C          61.0723   87.6665    9.6052 C.3     1  UNL1        0.1341
      6 C          60.5257   86.9393    8.4126 C.3     1  UNL1        0.0446
      7 C          59.6744   87.6679    7.4154 C.3     1  UNL1        0.0745
      8 N          59.3697   89.1235    7.6108 N.3     1  UNL1       -0.2688
      9 C          59.9164   89.8507    8.8035 C.3     1  UNL1        0.0745
     10 C          60.7677   89.1221    9.8007 C.3     1  UNL1        0.0446
     11 C          61.4597   86.2187    9.5431 C.2     1  UNL1        0.2525
     12 O          61.0638   85.2452    8.4727 O.2     1  UNL1       -0.2724
     13 C          63.2297   82.6074   12.7309 C.ar    1  UNL1        0.1400
     14 C          64.1324   81.9248   11.7464 C.ar    1  UNL1        0.0370
     15 C          64.4285   82.5724   10.4262 C.ar    1  UNL1        0.0044
     16 C          63.8218   83.9025   10.0905 C.ar    1  UNL1        0.0156
     17 C          62.9192   84.5851   11.0749 C.ar    1  UNL1        0.0652
     18 C          62.6231   83.9375   12.3952 C.ar    1  UNL1        0.0522
     19 C          61.6224   81.2643   14.2680 C.3     1  UNL1        0.2525
     20 O          62.9336   81.9599   14.0511 O.3     1  UNL1       -0.4714
     21 C          61.5556   89.6815   11.2938 C.3     1  UNL1        0.1243
     22 C          62.7835   90.5169   11.5042 C.ar    1  UNL1        0.0252
     23 C          63.4222   91.2175   10.3417 C.ar    1  UNL1       -0.0004
     24 C          64.6501   92.0529   10.5520 C.ar    1  UNL1       -0.0001
     25 C          65.2394   92.1878   11.9248 C.ar    1  UNL1        0.0023
     26 C          64.6007   91.4873   13.0873 C.ar    1  UNL1        0.0294
     27 C          63.3728   90.6519   12.8770 C.ar    1  UNL1        0.1377
     28 F          62.7342   89.9513   14.0394 F       1  UNL1       -0.2044
     29 C          58.5183   89.8521    6.6136 C.3     1  UNL1        0.0991
     30 C          59.1613   90.6945    5.5520 C.ar    1  UNL1       -0.0061
     31 C          60.6317   90.5693    5.2835 C.ar    1  UNL1       -0.0029
     32 C          61.2746   91.4118    4.2218 C.ar    1  UNL1       -0.0002
     33 C          60.4471   92.3794    3.4288 C.ar    1  UNL1        0.0015
     34 C          58.9767   92.5046    3.6974 C.ar    1  UNL1       -0.0002
     35 C          58.3337   91.6622    4.7590 C.ar    1  UNL1       -0.0029
     36 C          61.0900   93.2218    2.3673 C.ar    1  UNL1        0.0199
     37 C          62.5720   93.1486    2.1470 C.ar    1  UNL1        0.0989
     38 N          63.2149   93.9911    1.0853 N.ar    1  UNL1       -0.2416
     39 C          62.3759   94.9067    0.2441 C.ar    1  UNL1        0.1091
     40 C          60.8939   94.9799    0.4645 C.ar    1  UNL1        0.0876
     41 C          60.2510   94.1375    1.5260 C.ar    1  UNL1        0.0134
     42 C          60.0549   95.8955   -0.3767 C.1     1  UNL1        0.1020
     43 N          59.2159   96.8112   -1.2180 N.1     1  UNL1       -0.1908
@<TRIPOS>BOND
     1    19    20    1
     2    20    13    1
     3    13    14   ar
     4    14    15   ar
     5    15    16   ar
     6    16    17   ar
     7    17     1    1
     8     1     2   am
     9     2     3    2
    10     2     4   am
    11     4    21    1
    12    21    22    1
    13    22    23   ar
    14    23    24   ar
    15    24    25   ar
    16    25    26   ar
    17    26    27   ar
    18    27    28    1
    19     4     5    1
    20     5     6    1
    21     6     7    1
    22     7     8    1
    23     8    29    1
    24    29    30    1
    25    30    31   ar
    26    31    32   ar
    27    32    33   ar
    28    33    36    1
    29    36    37   ar
    30    37    38   ar
    31    38    39   ar
    32    39    40   ar
    33    40    42    1
    34    42    43    3
    35    40    41   ar
    36    33    34   ar
    37    34    35   ar
    38     8     9    1
    39     9    10    1
    40     5    11    1
    41    11    12    2
    42    17    18   ar
    43    18    13   ar
    44    11     1   am
    45    27    22   ar
    46    10     5    1
    47    35    30   ar
    48    41    36   ar
@<TRIPOS>MOLECULE
*****
 43 48 0 0 0
SMALL
GASTEIGER

@<TRIPOS>ATOM
      1 N          63.1768   89.4050   12.3879 N.am    1  UNL1       -0.1909
      2 C          62.9912   87.9184   12.4638 C.2     1  UNL1        0.3173
      3 O          63.6191   87.0019   13.4716 O.2     1  UNL1       -0.2516
      4 N          62.0675   87.5094   11.3550 N.am    1  UNL1       -0.2544
      5 C          61.6822   88.7431   10.5937 C.3     1  UNL1        0.1341
      6 C          61.3875   90.0569    9.9327 C.3     1  UNL1        0.0446
      7 C          60.4765   90.1098    8.7422 C.3     1  UNL1        0.0745
      8 N          59.8604   88.8489    8.2127 N.3     1  UNL1       -0.2688
      9 C          60.1551   87.5351    8.8737 C.3     1  UNL1        0.0745
     10 C          61.0660   87.4822   10.0642 C.3     1  UNL1        0.0446
     11 C          62.3678   89.9147   11.2321 C.2     1  UNL1        0.2525
     12 O          62.2628   91.3448   10.7920 O.2     1  UNL1       -0.2724
     13 C          65.8392   92.0602   13.6574 C.ar    1  UNL1        0.1400
     14 C          65.7150   91.8979   15.1434 C.ar    1  UNL1        0.0370
     15 C          64.7447   90.9047   15.7108 C.ar    1  UNL1        0.0044
     16 C          63.8987   90.0738   14.7923 C.ar    1  UNL1        0.0156
     17 C          64.0229   90.2360   13.3064 C.ar    1  UNL1        0.0652
     18 C          64.9932   91.2292   12.7389 C.ar    1  UNL1        0.0522
     19 C          66.3747   93.9883   12.0004 C.3     1  UNL1        0.2525
     20 O          66.8095   93.0534   13.0899 O.3     1  UNL1       -0.4714
     21 C          61.6095   86.1120   11.0593 C.3     1  UNL1        0.1243
     22 C          62.5744   84.9683   11.1648 C.ar    1  UNL1        0.0252
     23 C          62.7801   84.2796   12.4814 C.ar    1  UNL1       -0.0004
     24 C          63.7449   83.1360   12.5869 C.ar    1  UNL1       -0.0001
     25 C          64.5042   82.6811   11.3759 C.ar    1  UNL1        0.0023
     26 C          64.2985   83.3698   10.0593 C.ar    1  UNL1        0.0294
     27 C          63.3337   84.5134    9.9538 C.ar    1  UNL1        0.1377
     28 F          63.1280   85.2021    8.6372 F       1  UNL1       -0.2044
     29 C          58.9494   88.9018    7.0221 C.3     1  UNL1        0.0991
     30 C          59.1366   89.9654    5.9812 C.ar    1  UNL1       -0.0061
     31 C          60.5026   90.2378    5.4244 C.ar    1  UNL1       -0.0029
     32 C          60.6898   91.3015    4.3834 C.ar    1  UNL1       -0.0002
     33 C          59.5111   92.0927    3.8993 C.ar    1  UNL1        0.0015
     34 C          58.1451   91.8204    4.4560 C.ar    1  UNL1       -0.0002
     35 C          57.9579   90.7568    5.4970 C.ar    1  UNL1       -0.0029
     36 C          59.6983   93.1564    2.8583 C.ar    1  UNL1        0.0199
     37 C          60.0649   94.5517    3.2692 C.ar    1  UNL1        0.0989
     38 N          60.2521   95.6153    2.2282 N.ar    1  UNL1       -0.2416
     39 C          60.0728   95.2837    0.7764 C.ar    1  UNL1        0.1091
     40 C          59.7062   93.8884    0.3655 C.ar    1  UNL1        0.0876
     41 C          59.5190   92.8247    1.4064 C.ar    1  UNL1        0.0134
     42 C          59.5269   93.5567   -1.0863 C.1     1  UNL1        0.1020
     43 N          59.3476   93.2250   -2.5382 N.1     1  UNL1       -0.1908
@<TRIPOS>BOND
     1    19    20    1
     2    20    13    1
     3    13    14   ar
     4    14    15   ar
     5    15    16   ar
     6    16    17   ar
     7    17     1    1
     8     1     2   am
     9     2     3    2
    10     2     4   am
    11     4    21    1
    12    21    22    1
    13    22    23   ar
    14    23    24   ar
    15    24    25   ar
    16    25    26   ar
    17    26    27   ar
    18    27    28    1
    19     4     5    1
    20     5     6    1
    21     6     7    1
    22     7     8    1
    23     8    29    1
    24    29    30    1
    25    30    31   ar
    26    31    32   ar
    27    32    33   ar
    28    33    36    1
    29    36    37   ar
    30    37    38   ar
    31    38    39   ar
    32    39    40   ar
    33    40    42    1
    34    42    43    3
    35    40    41   ar
    36    33    34   ar
    37    34    35   ar
    38     8     9    1
    39     9    10    1
    40     5    11    1
    41    11    12    2
    42    17    18   ar
    43    18    13   ar
    44    11     1   am
    45    27    22   ar
    46    10     5    1
    47    35    30   ar
    48    41    36   ar
