@<TRIPOS>MOLECULE
*****
 42 45 0 0 0
SMALL
GASTEIGER

@<TRIPOS>ATOM
      1 C          64.1067   89.2516   13.1396 C.ar    1  UNL1        0.0053
      2 C          64.3956   89.0484   14.5974 C.ar    1  UNL1        0.0033
      3 C          64.1696   87.7057   15.2266 C.ar    1  UNL1        0.0382
      4 C          63.6547   86.5662   14.3981 C.ar    1  UNL1        0.1529
      5 C          63.3658   86.7694   12.9403 C.ar    1  UNL1        0.0882
      6 C          63.5918   88.1121   12.3111 C.ar    1  UNL1        0.0181
      7 N          62.8509   85.6299   12.1118 N.am    1  UNL1       -0.2514
      8 C          62.6250   84.2872   12.7411 C.2     1  UNL1        0.2697
      9 O          62.1101   83.1477   11.9126 O.2     1  UNL1       -0.2704
     10 C          62.9139   84.0839   14.1990 C.3     1  UNL1        0.2199
     11 C          63.0391   83.4028   15.5295 C.3     1  UNL1        0.0579
     12 O          63.4288   85.2234   15.0275 O.3     1  UNL1       -0.4686
     13 C          65.2299   91.5940   13.1777 C.ar    1  UNL1        0.0645
     14 N          65.4559   92.9368   12.5485 N.ar    1  UNL1       -0.2183
     15 C          64.7845   93.2799   11.2516 C.ar    1  UNL1        0.2145
     16 N          65.0105   94.6226   10.6224 N.pl3   1  UNL1       -0.3274
     17 N          63.8872   92.2802   10.5842 N.ar    1  UNL1       -0.1995
     18 C          63.6613   90.9374   11.2135 C.ar    1  UNL1        0.1293
     19 N          62.7640   89.9377   10.5460 N.pl3   1  UNL1       -0.3425
     20 C          64.3326   90.5944   12.5102 C.ar    1  UNL1        0.0449
     21 H          65.5994   95.2787   11.0605 H       1  UNL1        0.1452
     22 H          64.5699   94.8477    9.7712 H       1  UNL1        0.1452
     23 H          62.3234   90.1629    9.6949 H       1  UNL1        0.1437
     24 H          62.6157   89.0565   10.9590 H       1  UNL1        0.1437
     25 C          67.3417   91.6090   14.6911 C.3     1  UNL1        0.0067
     26 C          65.9012   91.2510   14.4745 C.3     1  UNL1        0.0460
     27 C          62.4425   82.7079   13.8325 C.ar    1  UNL1        0.0264
     28 C          63.1937   81.9046   12.8125 C.ar    1  UNL1        0.0293
     29 C          62.7223   80.5285   12.4461 C.ar    1  UNL1        0.1422
     30 F          63.4736   79.7253   11.4260 F       1  UNL1       -0.2041
     31 C          61.4998   79.9558   13.0996 C.ar    1  UNL1        0.0592
     32 C          60.7486   80.7591   14.1196 C.ar    1  UNL1        0.1422
     33 F          59.5259   80.1863   14.7732 F       1  UNL1       -0.2041
     34 C          61.2199   82.1351   14.4861 C.ar    1  UNL1        0.0293
     35 C          62.5620   85.8331   10.6540 C.3     1  UNL1        0.1172
     36 C          61.1662   86.1462   10.2026 C.3     1  UNL1        0.1129
     37 N          60.7446   87.5718   10.0028 N.3     1  UNL1       -0.1815
     38 H          61.5923   88.1378   10.0417 H       1  UNL1        0.1485
     39 S          60.0149   87.9702    8.7543 S.O2    1  UNL1        0.0427
     40 C          59.2851   88.3685    7.5058 C.3     1  UNL1        0.1957
     41 O          60.0965   89.4103    9.1660 O.2     1  UNL1       -0.1575
     42 O          59.9332   86.5301    8.3426 O.2     1  UNL1       -0.1575
@<TRIPOS>BOND
     1    25    26    1
     2    26    13    1
     3    13    14   ar
     4    14    15   ar
     5    15    16    1
     6    15    17   ar
     7    17    18   ar
     8    18    19    1
     9    18    20   ar
    10    20     1    1
    11     1     2   ar
    12     2     3   ar
    13     3     4   ar
    14     4     5   ar
    15     5     6   ar
    16     5     7    1
    17     7    35    1
    18    35    36    1
    19    36    37    1
    20    37    39    1
    21    39    40    1
    22    39    41    2
    23    39    42    2
    24     7     8   am
    25     8     9    2
    26     8    10    1
    27    10    11    1
    28    10    27    1
    29    27    28   ar
    30    28    29   ar
    31    29    30    1
    32    29    31   ar
    33    31    32   ar
    34    32    33    1
    35    32    34   ar
    36    10    12    1
    37    20    13   ar
    38     6     1   ar
    39    34    27   ar
    40    12     4    1
    41    16    21    1
    42    16    22    1
    43    19    23    1
    44    19    24    1
    45    37    38    1
@<TRIPOS>MOLECULE
*****
 42 45 0 0 0
SMALL
GASTEIGER

@<TRIPOS>ATOM
      1 C          64.1983   89.3326   13.2555 C.ar    1  UNL1        0.0053
      2 C          64.4541   89.1259   14.7189 C.ar    1  UNL1        0.0033
      3 C          64.2065   87.7838   15.3413 C.ar    1  UNL1        0.0382
      4 C          63.7031   86.6484   14.5002 C.ar    1  UNL1        0.1529
      5 C          63.4474   86.8551   13.0367 C.ar    1  UNL1        0.0882
      6 C          63.6950   88.1972   12.4143 C.ar    1  UNL1        0.0181
      7 N          62.9441   85.7197   12.1956 N.am    1  UNL1       -0.2514
      8 C          62.6965   84.3776   12.8179 C.2     1  UNL1        0.2697
      9 O          62.1931   83.2421   11.9768 O.2     1  UNL1       -0.2704
     10 C          62.9522   84.1708   14.2815 C.3     1  UNL1        0.2199
     11 C          63.0443   83.4873   15.6135 C.3     1  UNL1        0.0579
     12 O          63.4555   85.3062   15.1226 O.3     1  UNL1       -0.4686
     13 C          63.7094   91.0715   11.3880 C.ar    1  UNL1        0.0645
     14 N          63.9569   92.4135   10.7655 N.ar    1  UNL1       -0.2183
     15 C          64.9410   93.3591   11.3882 C.ar    1  UNL1        0.2145
     16 N          65.1886   94.7011   10.7657 N.pl3   1  UNL1       -0.3274
     17 N          65.6776   92.9624   12.6332 N.ar    1  UNL1       -0.1995
     18 C          65.4300   91.6202   13.2557 C.ar    1  UNL1        0.1293
     19 N          66.1665   91.2236   14.5007 N.pl3   1  UNL1       -0.3425
     20 C          64.4459   90.6748   12.6330 C.ar    1  UNL1        0.0449
     21 H          64.7052   94.9615    9.9486 H       1  UNL1        0.1452
     22 H          65.8345   95.3217   11.1744 H       1  UNL1        0.1452
     23 H          66.8124   91.8441   14.9094 H       1  UNL1        0.1437
     24 H          66.0040   90.3427   14.9093 H       1  UNL1        0.1437
     25 C          61.2593   90.4424   10.7950 C.3     1  UNL1        0.0067
     26 C          62.7253   90.1259   10.7653 C.3     1  UNL1        0.0460
     27 C          62.4809   82.7980   13.9030 C.ar    1  UNL1        0.0264
     28 C          63.2564   81.9866   12.9080 C.ar    1  UNL1        0.0293
     29 C          62.7850   80.6138   12.5295 C.ar    1  UNL1        0.1422
     30 F          63.5607   79.8023   11.5344 F       1  UNL1       -0.2041
     31 C          61.5382   80.0524   13.1459 C.ar    1  UNL1        0.0592
     32 C          60.7626   80.8639   14.1408 C.ar    1  UNL1        0.1422
     33 F          59.5156   80.3026   14.7573 F       1  UNL1       -0.2041
     34 C          61.2339   82.2367   14.5194 C.ar    1  UNL1        0.0293
     35 C          62.6883   85.9264   10.7321 C.3     1  UNL1        0.1172
     36 C          61.3319   86.3609   10.2618 C.3     1  UNL1        0.1129
     37 N          60.8115   85.8904    8.9359 N.3     1  UNL1       -0.1815
     38 H          60.3549   84.9932    9.1003 H       1  UNL1        0.1485
     39 S          59.8393   86.7368    8.1686 S.O2    1  UNL1        0.0427
     40 C          58.8672   87.5831    7.4014 C.3     1  UNL1        0.1957
     41 O          59.9382   87.8028    9.2193 O.2     1  UNL1       -0.1575
     42 O          59.7405   85.6708    7.1180 O.2     1  UNL1       -0.1575
@<TRIPOS>BOND
     1    25    26    1
     2    26    13    1
     3    13    14   ar
     4    14    15   ar
     5    15    16    1
     6    15    17   ar
     7    17    18   ar
     8    18    19    1
     9    18    20   ar
    10    20     1    1
    11     1     2   ar
    12     2     3   ar
    13     3     4   ar
    14     4     5   ar
    15     5     6   ar
    16     5     7    1
    17     7    35    1
    18    35    36    1
    19    36    37    1
    20    37    39    1
    21    39    40    1
    22    39    41    2
    23    39    42    2
    24     7     8   am
    25     8     9    2
    26     8    10    1
    27    10    11    1
    28    10    27    1
    29    27    28   ar
    30    28    29   ar
    31    29    30    1
    32    29    31   ar
    33    31    32   ar
    34    32    33    1
    35    32    34   ar
    36    10    12    1
    37    20    13   ar
    38     6     1   ar
    39    34    27   ar
    40    12     4    1
    41    16    21    1
    42    16    22    1
    43    19    23    1
    44    19    24    1
    45    37    38    1
@<TRIPOS>MOLECULE
*****
 42 45 0 0 0
SMALL
GASTEIGER

@<TRIPOS>ATOM
      1 C          64.6558   90.1636   13.7170 C.ar    1  UNL1        0.0053
      2 C          63.6929   90.4661   12.6074 C.ar    1  UNL1        0.0033
      3 C          62.9511   89.3503   11.9331 C.ar    1  UNL1        0.0382
      4 C          63.1722   87.9320   12.3685 C.ar    1  UNL1        0.1529
      5 C          64.1351   87.6295   13.4781 C.ar    1  UNL1        0.0882
      6 C          64.8769   88.7453   14.1523 C.ar    1  UNL1        0.0181
      7 N          64.3562   86.2112   13.9135 N.am    1  UNL1       -0.2514
      8 C          63.6143   85.0954   13.2392 C.2     1  UNL1        0.2697
      9 O          63.8354   83.6771   13.6746 O.2     1  UNL1       -0.2704
     10 C          62.6514   85.3979   12.1295 C.3     1  UNL1        0.2199
     11 C          61.6437   85.1817   11.0396 C.3     1  UNL1        0.0579
     12 O          62.4303   86.8162   11.6942 O.3     1  UNL1       -0.4686
     13 C          66.5361   91.9563   13.6871 C.ar    1  UNL1        0.0645
     14 N          67.2780   93.0721   14.3613 N.ar    1  UNL1       -0.2183
     15 C          66.8815   93.5110   15.7398 C.ar    1  UNL1        0.2145
     16 N          67.6233   94.6268   16.4141 N.pl3   1  UNL1       -0.3274
     17 N          65.7431   92.8341   16.4440 N.ar    1  UNL1       -0.1995
     18 C          65.0012   91.7183   15.7697 C.ar    1  UNL1        0.1293
     19 N          63.8628   91.0414   16.4739 N.pl3   1  UNL1       -0.3425
     20 C          65.3977   91.2794   14.3913 C.ar    1  UNL1        0.0449
     21 H          68.3705   95.0710   15.9519 H       1  UNL1        0.1452
     22 H          67.3631   94.9148   17.3188 H       1  UNL1        0.1452
     23 H          63.6026   91.3294   17.3786 H       1  UNL1        0.1437
     24 H          63.3759   90.3090   16.0314 H       1  UNL1        0.1437
     25 C          66.8382   92.4772   11.1597 C.3     1  UNL1        0.0067
     26 C          66.9326   91.5174   12.3086 C.3     1  UNL1        0.0460
     27 C          62.5225   83.9045   12.1864 C.ar    1  UNL1        0.0264
     28 C          63.0326   83.0640   11.0535 C.ar    1  UNL1        0.0293
     29 C          62.9036   81.5706   11.1104 C.ar    1  UNL1        0.1422
     30 F          63.4138   80.7302    9.9774 F       1  UNL1       -0.2041
     31 C          62.2648   80.9178   12.3000 C.ar    1  UNL1        0.0592
     32 C          61.7547   81.7582   13.4329 C.ar    1  UNL1        0.1422
     33 F          61.1158   81.1053   14.6227 F       1  UNL1       -0.2041
     34 C          61.8835   83.2516   13.3762 C.ar    1  UNL1        0.0293
     35 C          65.3190   85.9087   15.0231 C.3     1  UNL1        0.1172
     36 C          64.8778   85.0822   16.1945 C.3     1  UNL1        0.1129
     37 N          64.0876   85.7133   17.3024 N.3     1  UNL1       -0.1815
     38 H          64.5966   86.5499   17.5876 H       1  UNL1        0.1485
     39 S          62.6663   86.1305   17.0664 S.O2    1  UNL1        0.0427
     40 C          61.2449   86.5478   16.8304 C.3     1  UNL1        0.1957
     41 O          62.3371   84.7442   16.5977 O.2     1  UNL1       -0.1575
     42 O          62.9954   87.5169   17.5351 O.2     1  UNL1       -0.1575
@<TRIPOS>BOND
     1    25    26    1
     2    26    13    1
     3    13    14   ar
     4    14    15   ar
     5    15    16    1
     6    15    17   ar
     7    17    18   ar
     8    18    19    1
     9    18    20   ar
    10    20     1    1
    11     1     2   ar
    12     2     3   ar
    13     3     4   ar
    14     4     5   ar
    15     5     6   ar
    16     5     7    1
    17     7    35    1
    18    35    36    1
    19    36    37    1
    20    37    39    1
    21    39    40    1
    22    39    41    2
    23    39    42    2
    24     7     8   am
    25     8     9    2
    26     8    10    1
    27    10    11    1
    28    10    27    1
    29    27    28   ar
    30    28    29   ar
    31    29    30    1
    32    29    31   ar
    33    31    32   ar
    34    32    33    1
    35    32    34   ar
    36    10    12    1
    37    20    13   ar
    38     6     1   ar
    39    34    27   ar
    40    12     4    1
    41    16    21    1
    42    16    22    1
    43    19    23    1
    44    19    24    1
    45    37    38    1
@<TRIPOS>MOLECULE
*****
 42 45 0 0 0
SMALL
GASTEIGER

@<TRIPOS>ATOM
      1 C          62.6592   84.2200   12.5356 C.ar    1  UNL1        0.0053
      2 C          61.8801   84.9047   11.4519 C.ar    1  UNL1        0.0033
      3 C          61.9594   86.3946   11.2982 C.ar    1  UNL1        0.0382
      4 C          62.8177   87.2000   12.2281 C.ar    1  UNL1        0.1529
      5 C          63.5967   86.5154   13.3118 C.ar    1  UNL1        0.0882
      6 C          63.5175   85.0254   13.4655 C.ar    1  UNL1        0.0181
      7 N          64.4550   87.3207   14.2417 N.am    1  UNL1       -0.2514
      8 C          64.5342   88.8107   14.0880 C.2     1  UNL1        0.2697
      9 O          65.3925   89.6160   15.0179 O.2     1  UNL1       -0.2704
     10 C          63.7552   89.4954   13.0043 C.3     1  UNL1        0.2199
     11 C          63.2082   90.5920   12.1393 C.3     1  UNL1        0.0579
     12 O          62.8969   88.6900   12.0744 O.3     1  UNL1       -0.4686
     13 C          62.9052   81.8379   11.5281 C.ar    1  UNL1        0.0645
     14 N          62.8260   80.3479   11.6818 N.ar    1  UNL1       -0.2183
     15 C          62.4216   79.7500   12.9968 C.ar    1  UNL1        0.2145
     16 N          62.3424   78.2600   13.1505 N.pl3   1  UNL1       -0.3274
     17 N          62.0964   80.6421   14.1580 N.ar    1  UNL1       -0.1995
     18 C          62.1756   82.1321   14.0042 C.ar    1  UNL1        0.1293
     19 N          61.8504   83.0243   15.1654 N.pl3   1  UNL1       -0.3425
     20 C          62.5800   82.7300   12.6893 C.ar    1  UNL1        0.0449
     21 H          62.5558   77.6745   12.3884 H       1  UNL1        0.1452
     22 H          62.0770   77.8676   14.0135 H       1  UNL1        0.1452
     23 H          61.5850   82.6319   16.0285 H       1  UNL1        0.1437
     24 H          61.9024   84.0022   15.0645 H       1  UNL1        0.1437
     25 C          64.6773   83.0292   10.0481 C.3     1  UNL1        0.0067
     26 C          63.3096   82.4358   10.2132 C.3     1  UNL1        0.0460
     27 C          64.4235   90.6815   13.6338 C.ar    1  UNL1        0.0264
     28 C          64.1855   90.9960   15.0810 C.ar    1  UNL1        0.0293
     29 C          64.8539   92.1822   15.7105 C.ar    1  UNL1        0.1422
     30 F          64.6158   92.4966   17.1578 F       1  UNL1       -0.2041
     31 C          65.7601   93.0539   14.8929 C.ar    1  UNL1        0.0592
     32 C          65.9981   92.7394   13.4457 C.ar    1  UNL1        0.1422
     33 F          66.9045   93.6112   12.6279 F       1  UNL1       -0.2041
     34 C          65.3298   91.5533   12.8161 C.ar    1  UNL1        0.0293
     35 C          65.2341   86.6361   15.3253 C.3     1  UNL1        0.1172
     36 C          64.5935   85.5501   16.1380 C.3     1  UNL1        0.1129
     37 N          63.6983   85.9033   17.2886 N.3     1  UNL1       -0.1815
     38 H          64.2642   86.4357   17.9494 H       1  UNL1        0.1485
     39 S          62.4487   86.6981   17.0502 S.O2    1  UNL1        0.0427
     40 C          61.1990   87.4928   16.8118 C.3     1  UNL1        0.1957
     41 O          61.7591   85.4637   16.5493 O.2     1  UNL1       -0.1575
     42 O          63.1382   87.9324   17.5511 O.2     1  UNL1       -0.1575
@<TRIPOS>BOND
     1    25    26    1
     2    26    13    1
     3    13    14   ar
     4    14    15   ar
     5    15    16    1
     6    15    17   ar
     7    17    18   ar
     8    18    19    1
     9    18    20   ar
    10    20     1    1
    11     1     2   ar
    12     2     3   ar
    13     3     4   ar
    14     4     5   ar
    15     5     6   ar
    16     5     7    1
    17     7    35    1
    18    35    36    1
    19    36    37    1
    20    37    39    1
    21    39    40    1
    22    39    41    2
    23    39    42    2
    24     7     8   am
    25     8     9    2
    26     8    10    1
    27    10    11    1
    28    10    27    1
    29    27    28   ar
    30    28    29   ar
    31    29    30    1
    32    29    31   ar
    33    31    32   ar
    34    32    33    1
    35    32    34   ar
    36    10    12    1
    37    20    13   ar
    38     6     1   ar
    39    34    27   ar
    40    12     4    1
    41    16    21    1
    42    16    22    1
    43    19    23    1
    44    19    24    1
    45    37    38    1
@<TRIPOS>MOLECULE
*****
 42 45 0 0 0
SMALL
GASTEIGER

@<TRIPOS>ATOM
      1 C          62.7453   84.3935   11.7035 C.ar    1  UNL1        0.0053
      2 C          61.9274   85.1995   10.7385 C.ar    1  UNL1        0.0033
      3 C          61.9447   86.6977   10.8095 C.ar    1  UNL1        0.0382
      4 C          62.7799   87.3899   11.8455 C.ar    1  UNL1        0.1529
      5 C          63.5978   86.5839   12.8105 C.ar    1  UNL1        0.0882
      6 C          63.5805   85.0857   12.7395 C.ar    1  UNL1        0.0181
      7 N          64.4330   87.2761   13.8465 N.am    1  UNL1       -0.2514
      8 C          64.4503   88.7742   13.9175 C.2     1  UNL1        0.2697
      9 O          65.2855   89.4664   14.9535 O.2     1  UNL1       -0.2704
     10 C          63.6323   89.5803   12.9524 C.3     1  UNL1        0.2199
     11 C          63.0320   90.7703   12.2641 C.3     1  UNL1        0.0579
     12 O          62.7971   88.8881   11.9164 O.3     1  UNL1       -0.4686
     13 C          62.2102   82.0955   12.7912 C.ar    1  UNL1        0.0645
     14 N          62.1930   80.5973   12.7203 N.ar    1  UNL1       -0.2183
     15 C          62.6935   79.8987   11.4908 C.ar    1  UNL1        0.2145
     16 N          62.6762   78.4005   11.4199 N.pl3   1  UNL1       -0.3274
     17 N          63.2113   80.6985   10.3322 N.ar    1  UNL1       -0.1995
     18 C          63.2286   82.1968   10.4032 C.ar    1  UNL1        0.1293
     19 N          63.7464   82.9965    9.2446 N.pl3   1  UNL1       -0.3425
     20 C          62.7280   82.8952   11.6326 C.ar    1  UNL1        0.0449
     21 H          62.3364   77.8756   12.1803 H       1  UNL1        0.1452
     22 H          63.0048   77.9421   10.6130 H       1  UNL1        0.1452
     23 H          64.0749   82.5381    8.4376 H       1  UNL1        0.1437
     24 H          63.7577   83.9798    9.2911 H       1  UNL1        0.1437
     25 C          62.5836   82.8917   15.2359 C.3     1  UNL1        0.0067
     26 C          61.7097   82.7940   14.0207 C.3     1  UNL1        0.0460
     27 C          64.2591   90.6857   13.7493 C.ar    1  UNL1        0.0264
     28 C          63.8706   90.8895   15.1838 C.ar    1  UNL1        0.0293
     29 C          64.4974   91.9950   15.9808 C.ar    1  UNL1        0.1422
     30 F          64.1089   92.1987   17.4153 F       1  UNL1       -0.2041
     31 C          65.5125   92.8967   15.3434 C.ar    1  UNL1        0.0592
     32 C          65.9009   92.6929   13.9089 C.ar    1  UNL1        0.1422
     33 F          66.9161   93.5946   13.2715 F       1  UNL1       -0.2041
     34 C          65.2743   91.5875   13.1119 C.ar    1  UNL1        0.0293
     35 C          65.2509   86.4701   14.8115 C.3     1  UNL1        0.1172
     36 C          64.5828   85.7641   15.9540 C.3     1  UNL1        0.1129
     37 N          63.1572   86.0783   16.2991 N.3     1  UNL1       -0.1815
     38 H          62.6354   85.2056   16.2180 H       1  UNL1        0.1485
     39 S          62.8209   86.6609   17.6398 S.O2    1  UNL1        0.0427
     40 C          62.4847   87.2435   18.9805 C.3     1  UNL1        0.1957
     41 O          63.2331   88.0186   17.1532 O.2     1  UNL1       -0.1575
     42 O          62.4088   85.3032   18.1264 O.2     1  UNL1       -0.1575
@<TRIPOS>BOND
     1    25    26    1
     2    26    13    1
     3    13    14   ar
     4    14    15   ar
     5    15    16    1
     6    15    17   ar
     7    17    18   ar
     8    18    19    1
     9    18    20   ar
    10    20     1    1
    11     1     2   ar
    12     2     3   ar
    13     3     4   ar
    14     4     5   ar
    15     5     6   ar
    16     5     7    1
    17     7    35    1
    18    35    36    1
    19    36    37    1
    20    37    39    1
    21    39    40    1
    22    39    41    2
    23    39    42    2
    24     7     8   am
    25     8     9    2
    26     8    10    1
    27    10    11    1
    28    10    27    1
    29    27    28   ar
    30    28    29   ar
    31    29    30    1
    32    29    31   ar
    33    31    32   ar
    34    32    33    1
    35    32    34   ar
    36    10    12    1
    37    20    13   ar
    38     6     1   ar
    39    34    27   ar
    40    12     4    1
    41    16    21    1
    42    16    22    1
    43    19    23    1
    44    19    24    1
    45    37    38    1
@<TRIPOS>MOLECULE
*****
 42 45 0 0 0
SMALL
GASTEIGER

@<TRIPOS>ATOM
      1 C          64.6565   90.0467   13.7794 C.ar    1  UNL1        0.0053
      2 C          63.6543   90.3629   12.7090 C.ar    1  UNL1        0.0033
      3 C          62.9120   89.2533   12.0252 C.ar    1  UNL1        0.0382
      4 C          63.1718   87.8274   12.4118 C.ar    1  UNL1        0.1529
      5 C          64.1739   87.5112   13.4821 C.ar    1  UNL1        0.0882
      6 C          64.9162   88.6208   14.1659 C.ar    1  UNL1        0.0181
      7 N          64.4337   86.0853   13.8687 N.am    1  UNL1       -0.2514
      8 C          63.6914   84.9757   13.1849 C.2     1  UNL1        0.2697
      9 O          63.9512   83.5498   13.5714 O.2     1  UNL1       -0.2704
     10 C          62.6892   85.2919   12.1145 C.3     1  UNL1        0.2199
     11 C          61.6522   85.0884   11.0500 C.3     1  UNL1        0.0579
     12 O          62.4294   86.7178   11.7279 O.3     1  UNL1       -0.4686
     13 C          64.8749   91.7299   15.7464 C.ar    1  UNL1        0.0645
     14 N          65.6173   92.8395   16.4302 N.ar    1  UNL1       -0.2183
     15 C          66.8836   93.3756   15.8309 C.ar    1  UNL1        0.2145
     16 N          67.6259   94.4852   16.5148 N.pl3   1  UNL1       -0.3274
     17 N          67.4075   92.8020   14.5477 N.ar    1  UNL1       -0.1995
     18 C          66.6651   91.6924   13.8639 C.ar    1  UNL1        0.1293
     19 N          67.1890   91.1188   12.5807 N.pl3   1  UNL1       -0.3425
     20 C          65.3989   91.1563   14.4632 C.ar    1  UNL1        0.0449
     21 H          67.2821   94.8616   17.3570 H       1  UNL1        0.1452
     22 H          68.4570   94.8370   16.1214 H       1  UNL1        0.1452
     23 H          68.0201   91.4707   12.1874 H       1  UNL1        0.1437
     24 H          66.7018   90.3905   12.1319 H       1  UNL1        0.1437
     25 C          63.5595   89.7852   16.8591 C.3     1  UNL1        0.0067
     26 C          63.6086   91.1938   16.3457 C.3     1  UNL1        0.0460
     27 C          62.5888   83.7954   12.1313 C.ar    1  UNL1        0.0264
     28 C          61.9397   83.1003   13.2912 C.ar    1  UNL1        0.0293
     29 C          61.8393   81.6037   13.3080 C.ar    1  UNL1        0.1422
     30 F          61.1901   80.9086   14.4680 F       1  UNL1       -0.2041
     31 C          62.3881   80.8023   12.1651 C.ar    1  UNL1        0.0592
     32 C          63.0373   81.4974   11.0052 C.ar    1  UNL1        0.1422
     33 F          63.5861   80.6960    9.8622 F       1  UNL1       -0.2041
     34 C          63.1377   82.9940   10.9883 C.ar    1  UNL1        0.0293
     35 C          65.4358   85.7691   14.9390 C.3     1  UNL1        0.1172
     36 C          64.9704   85.3743   16.3092 C.3     1  UNL1        0.1129
     37 N          63.5830   84.8382   16.5045 N.3     1  UNL1       -0.1815
     38 H          63.6369   84.1474   17.2530 H       1  UNL1        0.1485
     39 S          62.4614   85.7703   16.8555 S.O2    1  UNL1        0.0427
     40 C          61.3398   86.7024   17.2064 C.3     1  UNL1        0.1957
     41 O          63.3169   86.4014   17.9137 O.2     1  UNL1       -0.1575
     42 O          61.6059   85.1393   15.7972 O.2     1  UNL1       -0.1575
@<TRIPOS>BOND
     1    25    26    1
     2    26    13    1
     3    13    14   ar
     4    14    15   ar
     5    15    16    1
     6    15    17   ar
     7    17    18   ar
     8    18    19    1
     9    18    20   ar
    10    20     1    1
    11     1     2   ar
    12     2     3   ar
    13     3     4   ar
    14     4     5   ar
    15     5     6   ar
    16     5     7    1
    17     7    35    1
    18    35    36    1
    19    36    37    1
    20    37    39    1
    21    39    40    1
    22    39    41    2
    23    39    42    2
    24     7     8   am
    25     8     9    2
    26     8    10    1
    27    10    11    1
    28    10    27    1
    29    27    28   ar
    30    28    29   ar
    31    29    30    1
    32    29    31   ar
    33    31    32   ar
    34    32    33    1
    35    32    34   ar
    36    10    12    1
    37    20    13   ar
    38     6     1   ar
    39    34    27   ar
    40    12     4    1
    41    16    21    1
    42    16    22    1
    43    19    23    1
    44    19    24    1
    45    37    38    1
@<TRIPOS>MOLECULE
*****
 42 45 0 0 0
SMALL
GASTEIGER

@<TRIPOS>ATOM
      1 C          62.3565   86.2744   10.2451 C.ar    1  UNL1        0.0053
      2 C          62.4712   85.3270   11.4023 C.ar    1  UNL1        0.0033
      3 C          62.9212   85.8302   12.7418 C.ar    1  UNL1        0.0382
      4 C          63.2565   87.2808   12.9240 C.ar    1  UNL1        0.1529
      5 C          63.1419   88.2283   11.7668 C.ar    1  UNL1        0.0882
      6 C          62.6919   87.7250   10.4273 C.ar    1  UNL1        0.0181
      7 N          63.4772   89.6789   11.9490 N.am    1  UNL1       -0.2514
      8 C          63.9272   90.1821   13.2885 C.2     1  UNL1        0.2697
      9 O          64.2626   91.6327   13.4707 O.2     1  UNL1       -0.2704
     10 C          64.0419   89.2347   14.4458 C.3     1  UNL1        0.2199
     11 C          64.3047   88.7302   15.8337 C.3     1  UNL1        0.0579
     12 O          63.7066   87.7841   14.2636 O.3     1  UNL1       -0.4686
     13 C          60.6276   86.2760    8.3057 C.ar    1  UNL1        0.0645
     14 N          60.1776   85.7728    6.9662 N.ar    1  UNL1       -0.2183
     15 C          61.0064   84.7649    6.2265 C.ar    1  UNL1        0.2145
     16 N          60.5564   84.2617    4.8870 N.pl3   1  UNL1       -0.3274
     17 N          62.2852   84.2601    6.8263 N.ar    1  UNL1       -0.1995
     18 C          62.7353   84.7633    8.1658 C.ar    1  UNL1        0.1293
     19 N          64.0141   84.2585    8.7656 N.pl3   1  UNL1       -0.3425
     20 C          61.9065   85.7712    8.9055 C.ar    1  UNL1        0.0449
     21 H          59.7170   84.5930    4.4933 H       1  UNL1        0.1452
     22 H          61.1003   83.6002    4.4015 H       1  UNL1        0.1452
     23 H          64.5581   83.5970    8.2801 H       1  UNL1        0.1437
     24 H          64.3095   84.5888    9.6448 H       1  UNL1        0.1437
     25 C          59.8404   88.7287    8.6443 C.3     1  UNL1        0.0067
     26 C          59.7988   87.2839    9.0455 C.3     1  UNL1        0.0460
     27 C          64.4685   90.5101   15.1100 C.ar    1  UNL1        0.0264
     28 C          65.8598   91.0326   14.9069 C.ar    1  UNL1        0.0293
     29 C          66.2865   92.3080   15.5712 C.ar    1  UNL1        0.1422
     30 F          67.6779   92.8304   15.3679 F       1  UNL1       -0.2041
     31 C          65.3219   93.0610   16.4385 C.ar    1  UNL1        0.0592
     32 C          63.9306   92.5385   16.6417 C.ar    1  UNL1        0.1422
     33 F          62.9659   93.2915   17.5092 F       1  UNL1       -0.2041
     34 C          63.5039   91.2631   15.9775 C.ar    1  UNL1        0.0293
     35 C          63.3626   90.6263   10.7918 C.3     1  UNL1        0.1172
     36 C          64.5614   91.4060   10.3392 C.3     1  UNL1        0.1129
     37 N          64.6924   92.8564   10.6990 N.3     1  UNL1       -0.1815
     38 H          64.5374   92.9254   11.7048 H       1  UNL1        0.1485
     39 S          65.9678   93.5896   10.4061 S.O2    1  UNL1        0.0427
     40 C          67.2432   94.3228   10.1132 C.3     1  UNL1        0.1957
     41 O          65.2281   94.8938   10.4500 O.2     1  UNL1       -0.1575
     42 O          66.7075   92.2854   10.3623 O.2     1  UNL1       -0.1575
@<TRIPOS>BOND
     1    25    26    1
     2    26    13    1
     3    13    14   ar
     4    14    15   ar
     5    15    16    1
     6    15    17   ar
     7    17    18   ar
     8    18    19    1
     9    18    20   ar
    10    20     1    1
    11     1     2   ar
    12     2     3   ar
    13     3     4   ar
    14     4     5   ar
    15     5     6   ar
    16     5     7    1
    17     7    35    1
    18    35    36    1
    19    36    37    1
    20    37    39    1
    21    39    40    1
    22    39    41    2
    23    39    42    2
    24     7     8   am
    25     8     9    2
    26     8    10    1
    27    10    11    1
    28    10    27    1
    29    27    28   ar
    30    28    29   ar
    31    29    30    1
    32    29    31   ar
    33    31    32   ar
    34    32    33    1
    35    32    34   ar
    36    10    12    1
    37    20    13   ar
    38     6     1   ar
    39    34    27   ar
    40    12     4    1
    41    16    21    1
    42    16    22    1
    43    19    23    1
    44    19    24    1
    45    37    38    1
