@<TRIPOS>MOLECULE
*****
 22 24 0 0 0
SMALL
GASTEIGER

@<TRIPOS>ATOM
      1 O          59.5762   88.9392   12.2623 O.2     1  UNL1       -0.2844
      2 C          60.8191   88.8167   11.4316 C.2     1  UNL1        0.2192
      3 C          62.0243   89.6481   11.7580 C.ar    1  UNL1        0.1496
      4 N          62.7693   89.6478   13.0598 N.ar    1  UNL1       -0.2351
      5 C          63.9015   90.6252   12.9462 C.ar    1  UNL1        0.0882
      6 C          64.9678   91.0430   13.9149 C.ar    1  UNL1        0.0227
      7 C          65.9888   92.0652   13.5115 C.ar    1  UNL1        0.0382
      8 C          65.9434   92.6695   12.1393 C.ar    1  UNL1        0.1343
      9 O          66.9645   93.6917   11.7359 O.3     1  UNL1       -0.5055
     10 C          64.8771   92.2517   11.1707 C.ar    1  UNL1        0.0446
     11 C          63.8561   91.2296   11.5741 C.ar    1  UNL1        0.0516
     12 S          62.6960   90.6257   10.8397 S.2     1  UNL1       -0.0633
     13 H          67.6306   93.9527   12.3410 H       1  UNL1        0.2922
     14 C          60.8570   87.8629   10.2746 C.ar    1  UNL1        0.0442
     15 C          62.1146   87.1048    9.9683 C.ar    1  UNL1        0.0058
     16 C          62.1524   86.1510    8.8113 C.ar    1  UNL1        0.0329
     17 C          60.9326   85.9551    7.9605 C.ar    1  UNL1        0.1735
     18 F          60.9705   85.0012    6.8035 F       1  UNL1       -0.2010
     19 C          59.6750   86.7131    8.2668 C.ar    1  UNL1        0.1611
     20 O          58.4552   86.5172    7.4161 O.3     1  UNL1       -0.5034
     21 C          59.6372   87.6670    9.4239 C.ar    1  UNL1        0.0422
     22 H          58.4789   85.9214    6.6933 H       1  UNL1        0.2923
@<TRIPOS>BOND
     1     1     2    2
     2     2    14    1
     3    14    15   ar
     4    15    16   ar
     5    16    17   ar
     6    17    18    1
     7    17    19   ar
     8    19    20    1
     9    19    21   ar
    10     2     3    1
    11     3     4   ar
    12     4     5   ar
    13     5     6   ar
    14     6     7   ar
    15     7     8   ar
    16     8     9    1
    17     8    10   ar
    18    10    11   ar
    19    11    12   ar
    20    21    14   ar
    21    12     3   ar
    22    11     5   ar
    23    20    22    1
    24     9    13    1
@<TRIPOS>MOLECULE
*****
 22 24 0 0 0
SMALL
GASTEIGER

@<TRIPOS>ATOM
      1 O          63.3427   91.2710   16.7228 O.2     1  UNL1       -0.2844
      2 C          63.8692   90.3996   15.6212 C.2     1  UNL1        0.2192
      3 C          64.4801   91.0211   14.4003 C.ar    1  UNL1        0.1496
      4 N          63.7617   91.3511   13.1256 N.ar    1  UNL1       -0.2351
      5 C          64.7543   91.9556   12.1772 C.ar    1  UNL1        0.0882
      6 C          64.6174   92.4720   10.7756 C.ar    1  UNL1        0.0227
      7 C          65.8124   93.0320   10.0626 C.ar    1  UNL1        0.0382
      8 C          67.1442   93.0757   10.7513 C.ar    1  UNL1        0.1343
      9 O          68.3393   93.6357   10.0382 O.3     1  UNL1       -0.5055
     10 C          67.2811   92.5593   12.1529 C.ar    1  UNL1        0.0446
     11 C          66.0862   91.9993   12.8659 C.ar    1  UNL1        0.0516
     12 S          65.9167   91.4217   14.2398 S.2     1  UNL1       -0.0633
     13 H          68.2537   93.9583    9.1627 H       1  UNL1        0.2922
     14 C          63.7849   88.9068   15.7406 C.ar    1  UNL1        0.0442
     15 C          64.4178   88.0340   14.6976 C.ar    1  UNL1        0.0058
     16 C          64.3334   86.5412   14.8169 C.ar    1  UNL1        0.0329
     17 C          63.6161   85.9211   15.9793 C.ar    1  UNL1        0.1735
     18 F          63.5318   84.4281   16.0986 F       1  UNL1       -0.2010
     19 C          62.9833   86.7937   17.0222 C.ar    1  UNL1        0.1611
     20 O          62.2660   86.1736   18.1845 O.3     1  UNL1       -0.5034
     21 C          63.0676   88.2867   16.9029 C.ar    1  UNL1        0.0422
     22 H          62.2133   85.2411   18.2591 H       1  UNL1        0.2923
@<TRIPOS>BOND
     1     1     2    2
     2     2    14    1
     3    14    15   ar
     4    15    16   ar
     5    16    17   ar
     6    17    18    1
     7    17    19   ar
     8    19    20    1
     9    19    21   ar
    10     2     3    1
    11     3     4   ar
    12     4     5   ar
    13     5     6   ar
    14     6     7   ar
    15     7     8   ar
    16     8     9    1
    17     8    10   ar
    18    10    11   ar
    19    11    12   ar
    20    21    14   ar
    21    12     3   ar
    22    11     5   ar
    23    20    22    1
    24     9    13    1
@<TRIPOS>MOLECULE
*****
 22 24 0 0 0
SMALL
GASTEIGER

@<TRIPOS>ATOM
      1 O          59.5711   88.7899   12.1409 O.2     1  UNL1       -0.2844
      2 C          60.7886   88.7173   11.2679 C.2     1  UNL1        0.2192
      3 C          61.9746   89.5877   11.5609 C.ar    1  UNL1        0.1496
      4 N          62.6936   89.6856   12.8737 N.ar    1  UNL1       -0.2351
      5 C          63.8132   90.6714   12.7167 C.ar    1  UNL1        0.0882
      6 C          64.8538   91.1695   13.6753 C.ar    1  UNL1        0.0227
      7 C          65.8673   92.1790   13.2241 C.ar    1  UNL1        0.0382
      8 C          65.8402   92.6904   11.8143 C.ar    1  UNL1        0.1343
      9 O          66.8538   93.7000   11.3631 O.3     1  UNL1       -0.5055
     10 C          64.7996   92.1924   10.8556 C.ar    1  UNL1        0.0446
     11 C          63.7861   91.1829   11.3068 C.ar    1  UNL1        0.0516
     12 S          62.6498   90.5131   10.5926 S.2     1  UNL1       -0.0633
     13 H          67.5039   94.0111   11.9619 H       1  UNL1        0.2922
     14 C          60.8202   87.7742   10.1020 C.ar    1  UNL1        0.0442
     15 C          59.6485   87.6958    9.1687 C.ar    1  UNL1        0.0058
     16 C          59.6801   86.7527    8.0027 C.ar    1  UNL1        0.0329
     17 C          60.8834   85.8879    7.7700 C.ar    1  UNL1        0.1735
     18 F          60.9150   84.9448    6.6039 F       1  UNL1       -0.2010
     19 C          62.0551   85.9663    8.7032 C.ar    1  UNL1        0.1611
     20 O          63.2585   85.1015    8.4704 O.3     1  UNL1       -0.5034
     21 C          62.0236   86.9094    9.8692 C.ar    1  UNL1        0.0422
     22 H          63.2782   84.5124    7.7420 H       1  UNL1        0.2923
@<TRIPOS>BOND
     1     1     2    2
     2     2    14    1
     3    14    15   ar
     4    15    16   ar
     5    16    17   ar
     6    17    18    1
     7    17    19   ar
     8    19    20    1
     9    19    21   ar
    10     2     3    1
    11     3     4   ar
    12     4     5   ar
    13     5     6   ar
    14     6     7   ar
    15     7     8   ar
    16     8     9    1
    17     8    10   ar
    18    10    11   ar
    19    11    12   ar
    20    21    14   ar
    21    12     3   ar
    22    11     5   ar
    23    20    22    1
    24     9    13    1
@<TRIPOS>MOLECULE
*****
 22 24 0 0 0
SMALL
GASTEIGER

@<TRIPOS>ATOM
      1 O          62.8627   90.1034   14.3961 O.2     1  UNL1       -0.2844
      2 C          63.1556   90.2683   12.9343 C.2     1  UNL1        0.2192
      3 C          62.4359   89.4234   11.9252 C.ar    1  UNL1        0.1496
      4 N          62.7329   87.9886   11.6041 N.ar    1  UNL1       -0.2351
      5 C          61.7734   87.5434   10.5405 C.ar    1  UNL1        0.0882
      6 C          61.5952   86.2319    9.8348 C.ar    1  UNL1        0.0227
      7 C          60.5269   86.0801    8.7928 C.ar    1  UNL1        0.0382
      8 C          59.6369   87.2397    8.4567 C.ar    1  UNL1        0.1343
      9 O          58.5685   87.0878    7.4147 O.3     1  UNL1       -0.5055
     10 C          59.8151   88.5512    9.1624 C.ar    1  UNL1        0.0446
     11 C          60.8833   88.7031   10.2044 C.ar    1  UNL1        0.0516
     12 S          61.2928   89.8649   11.0602 S.2     1  UNL1       -0.0633
     13 H          58.4572   86.2685    6.9738 H       1  UNL1        0.2922
     14 C          64.1681   91.2781   12.4815 C.ar    1  UNL1        0.0442
     15 C          64.1530   91.7724   11.0654 C.ar    1  UNL1        0.0058
     16 C          65.1655   92.7822   10.6126 C.ar    1  UNL1        0.0329
     17 C          66.1932   93.2978   11.5759 C.ar    1  UNL1        0.1735
     18 F          67.2057   94.3076   11.1231 F       1  UNL1       -0.2010
     19 C          66.2083   92.8035   12.9921 C.ar    1  UNL1        0.1611
     20 O          67.2360   93.3191   13.9554 O.3     1  UNL1       -0.5034
     21 C          65.1958   91.7937   13.4449 C.ar    1  UNL1        0.0422
     22 H          67.8685   93.9499   13.6726 H       1  UNL1        0.2923
@<TRIPOS>BOND
     1     1     2    2
     2     2    14    1
     3    14    15   ar
     4    15    16   ar
     5    16    17   ar
     6    17    18    1
     7    17    19   ar
     8    19    20    1
     9    19    21   ar
    10     2     3    1
    11     3     4   ar
    12     4     5   ar
    13     5     6   ar
    14     6     7   ar
    15     7     8   ar
    16     8     9    1
    17     8    10   ar
    18    10    11   ar
    19    11    12   ar
    20    21    14   ar
    21    12     3   ar
    22    11     5   ar
    23    20    22    1
    24     9    13    1
@<TRIPOS>MOLECULE
*****
 22 24 0 0 0
SMALL
GASTEIGER

@<TRIPOS>ATOM
      1 O          60.2286   88.8287   11.4033 O.2     1  UNL1       -0.2844
      2 C          61.6940   88.5488   11.2478 C.2     1  UNL1        0.2192
      3 C          62.6984   89.6219   11.5472 C.ar    1  UNL1        0.1496
      4 N          63.3951   89.8366   12.8581 N.ar    1  UNL1       -0.2351
      5 C          64.3098   91.0161   12.7093 C.ar    1  UNL1        0.0882
      6 C          65.2453   91.6882   13.6700 C.ar    1  UNL1        0.0227
      7 C          66.0494   92.8747   13.2278 C.ar    1  UNL1        0.0382
      8 C          65.9181   93.3890   11.8248 C.ar    1  UNL1        0.1343
      9 O          66.7223   94.5755   11.3826 O.3     1  UNL1       -0.5055
     10 C          64.9826   92.7168   10.8641 C.ar    1  UNL1        0.0446
     11 C          64.1784   91.5304   11.3063 C.ar    1  UNL1        0.0516
     12 S          63.1825   90.6687   10.5881 S.2     1  UNL1       -0.0633
     13 H          67.3067   94.9954   11.9827 H       1  UNL1        0.2922
     14 C          62.1549   87.1959   10.7929 C.ar    1  UNL1        0.0442
     15 C          62.3387   86.9187    9.3302 C.ar    1  UNL1        0.0058
     16 C          62.7996   85.5657    8.8753 C.ar    1  UNL1        0.0329
     17 C          63.0769   84.4899    9.8831 C.ar    1  UNL1        0.1735
     18 F          63.5379   83.1368    9.4282 F       1  UNL1       -0.2010
     19 C          62.8932   84.7670   11.3458 C.ar    1  UNL1        0.1611
     20 O          63.1705   83.6911   12.3536 O.3     1  UNL1       -0.5034
     21 C          62.4322   86.1200   11.8007 C.ar    1  UNL1        0.0422
     22 H          63.4584   82.8459   12.0694 H       1  UNL1        0.2923
@<TRIPOS>BOND
     1     1     2    2
     2     2    14    1
     3    14    15   ar
     4    15    16   ar
     5    16    17   ar
     6    17    18    1
     7    17    19   ar
     8    19    20    1
     9    19    21   ar
    10     2     3    1
    11     3     4   ar
    12     4     5   ar
    13     5     6   ar
    14     6     7   ar
    15     7     8   ar
    16     8     9    1
    17     8    10   ar
    18    10    11   ar
    19    11    12   ar
    20    21    14   ar
    21    12     3   ar
    22    11     5   ar
    23    20    22    1
    24     9    13    1
@<TRIPOS>MOLECULE
*****
 22 24 0 0 0
SMALL
GASTEIGER

@<TRIPOS>ATOM
      1 O          60.2051   88.7808   11.2927 O.2     1  UNL1       -0.2844
      2 C          61.6740   88.5110   11.1534 C.2     1  UNL1        0.2192
      3 C          62.6650   89.6102   11.3981 C.ar    1  UNL1        0.1496
      4 N          63.1343   90.6151   10.3882 N.ar    1  UNL1       -0.2351
      5 C          64.1200   91.5234   11.0616 C.ar    1  UNL1        0.0882
      6 C          64.9082   92.6971   10.5605 C.ar    1  UNL1        0.0227
      7 C          65.8363   93.4271   11.4854 C.ar    1  UNL1        0.0382
      8 C          65.9763   92.9835   12.9114 C.ar    1  UNL1        0.1343
      9 O          66.9045   93.7136   13.8363 O.3     1  UNL1       -0.5055
     10 C          65.1881   91.8098   13.4125 C.ar    1  UNL1        0.0446
     11 C          64.2600   91.0798   12.4876 C.ar    1  UNL1        0.0516
     12 S          63.3607   89.8973   12.6956 S.2     1  UNL1       -0.0633
     13 H          67.3969   94.4468   13.5233 H       1  UNL1        0.2922
     14 C          62.1520   87.1421   10.7694 C.ar    1  UNL1        0.0442
     15 C          62.4936   86.1411   11.8331 C.ar    1  UNL1        0.0058
     16 C          62.9715   84.7722   11.4491 C.ar    1  UNL1        0.0329
     17 C          63.1079   84.4041   10.0013 C.ar    1  UNL1        0.1735
     18 F          63.5859   83.0351    9.6173 F       1  UNL1       -0.2010
     19 C          62.7663   85.4050    8.9376 C.ar    1  UNL1        0.1611
     20 O          62.9027   85.0369    7.4899 O.3     1  UNL1       -0.5034
     21 C          62.2883   86.7740    9.3216 C.ar    1  UNL1        0.0422
     22 H          63.2012   84.1817    7.2500 H       1  UNL1        0.2923
@<TRIPOS>BOND
     1     1     2    2
     2     2    14    1
     3    14    15   ar
     4    15    16   ar
     5    16    17   ar
     6    17    18    1
     7    17    19   ar
     8    19    20    1
     9    19    21   ar
    10     2     3    1
    11     3     4   ar
    12     4     5   ar
    13     5     6   ar
    14     6     7   ar
    15     7     8   ar
    16     8     9    1
    17     8    10   ar
    18    10    11   ar
    19    11    12   ar
    20    21    14   ar
    21    12     3   ar
    22    11     5   ar
    23    20    22    1
    24     9    13    1
@<TRIPOS>MOLECULE
*****
 22 24 0 0 0
SMALL
GASTEIGER

@<TRIPOS>ATOM
      1 O          60.8928   86.2090   10.6270 O.2     1  UNL1       -0.2844
      2 C          62.0691   86.1252   11.5539 C.2     1  UNL1        0.2192
      3 C          62.7409   87.3796   12.0284 C.ar    1  UNL1        0.1496
      4 N          63.5049   87.5402   13.3092 N.ar    1  UNL1       -0.2351
      5 C          64.0030   88.9535   13.3778 C.ar    1  UNL1        0.0882
      6 C          64.8129   89.6834   14.4079 C.ar    1  UNL1        0.0227
      7 C          65.1666   91.1261   14.1995 C.ar    1  UNL1        0.0382
      8 C          64.7104   91.8389   12.9611 C.ar    1  UNL1        0.1343
      9 O          65.0642   93.2817   12.7528 O.3     1  UNL1       -0.5055
     10 C          63.9005   91.1090   11.9310 C.ar    1  UNL1        0.0446
     11 C          63.5468   89.6663   12.1393 C.ar    1  UNL1        0.0516
     12 S          62.7668   88.6935   11.3054 S.2     1  UNL1       -0.0633
     13 H          65.5701   93.7376   13.3963 H       1  UNL1        0.2922
     14 C          62.5735   84.7870   12.0064 C.ar    1  UNL1        0.0442
     15 C          63.2382   83.8657   11.0269 C.ar    1  UNL1        0.0058
     16 C          63.7427   82.5275   11.4794 C.ar    1  UNL1        0.0329
     17 C          63.5824   82.1106   12.9114 C.ar    1  UNL1        0.1735
     18 F          64.0869   80.7723   13.3638 F       1  UNL1       -0.2010
     19 C          62.9177   83.0318   13.8908 C.ar    1  UNL1        0.1611
     20 O          62.7575   82.6149   15.3228 O.3     1  UNL1       -0.5034
     21 C          62.4133   84.3701   13.4384 C.ar    1  UNL1        0.0422
     22 H          63.0726   81.7790   15.6055 H       1  UNL1        0.2923
@<TRIPOS>BOND
     1     1     2    2
     2     2    14    1
     3    14    15   ar
     4    15    16   ar
     5    16    17   ar
     6    17    18    1
     7    17    19   ar
     8    19    20    1
     9    19    21   ar
    10     2     3    1
    11     3     4   ar
    12     4     5   ar
    13     5     6   ar
    14     6     7   ar
    15     7     8   ar
    16     8     9    1
    17     8    10   ar
    18    10    11   ar
    19    11    12   ar
    20    21    14   ar
    21    12     3   ar
    22    11     5   ar
    23    20    22    1
    24     9    13    1
@<TRIPOS>MOLECULE
*****
 22 24 0 0 0
SMALL
GASTEIGER

@<TRIPOS>ATOM
      1 O          62.5104   86.6959    8.7097 O.2     1  UNL1       -0.2844
      2 C          62.0669   86.8472   10.1346 C.2     1  UNL1        0.2192
      3 C          62.4544   85.8174   11.1540 C.ar    1  UNL1        0.1496
      4 N          62.9265   86.0935   12.5508 N.ar    1  UNL1       -0.2351
      5 C          63.2018   84.7774   13.2158 C.ar    1  UNL1        0.0882
      6 C          63.6884   84.4304   14.5915 C.ar    1  UNL1        0.0227
      7 C          63.8730   82.9938   14.9815 C.ar    1  UNL1        0.0382
      8 C          63.5711   81.9043   13.9957 C.ar    1  UNL1        0.1343
      9 O          63.7558   80.4677   14.3857 O.3     1  UNL1       -0.5055
     10 C          63.0845   82.2513   12.6199 C.ar    1  UNL1        0.0446
     11 C          62.8999   83.6879   12.2300 C.ar    1  UNL1        0.0516
     12 S          62.4380   84.3307   10.9558 S.2     1  UNL1       -0.0633
     13 H          64.0597   80.2509   15.2451 H       1  UNL1        0.2922
     14 C          61.2359   88.0283   10.5400 C.ar    1  UNL1        0.0442
     15 C          61.5619   89.3926   10.0086 C.ar    1  UNL1        0.0058
     16 C          60.7309   90.5737   10.4141 C.ar    1  UNL1        0.0329
     17 C          59.5738   90.3905   11.3509 C.ar    1  UNL1        0.1735
     18 F          58.7428   91.5717   11.7563 F       1  UNL1       -0.2010
     19 C          59.2478   89.0263   11.8822 C.ar    1  UNL1        0.1611
     20 O          58.0907   88.8431   12.8190 O.3     1  UNL1       -0.5034
     21 C          60.0788   87.8451   11.4768 C.ar    1  UNL1        0.0422
     22 H          57.5716   89.5809   13.0723 H       1  UNL1        0.2923
@<TRIPOS>BOND
     1     1     2    2
     2     2    14    1
     3    14    15   ar
     4    15    16   ar
     5    16    17   ar
     6    17    18    1
     7    17    19   ar
     8    19    20    1
     9    19    21   ar
    10     2     3    1
    11     3     4   ar
    12     4     5   ar
    13     5     6   ar
    14     6     7   ar
    15     7     8   ar
    16     8     9    1
    17     8    10   ar
    18    10    11   ar
    19    11    12   ar
    20    21    14   ar
    21    12     3   ar
    22    11     5   ar
    23    20    22    1
    24     9    13    1
@<TRIPOS>MOLECULE
*****
 22 24 0 0 0
SMALL
GASTEIGER

@<TRIPOS>ATOM
      1 O          60.9943   89.9893   11.5656 O.2     1  UNL1       -0.2844
      2 C          62.3750   89.5100   11.9028 C.2     1  UNL1        0.2192
      3 C          62.6473   88.0409   12.0359 C.ar    1  UNL1        0.1496
      4 N          63.4690   87.3902   13.1090 N.ar    1  UNL1       -0.2351
      5 C          63.4753   85.9117   12.8556 C.ar    1  UNL1        0.0882
      6 C          64.1200   84.7710   13.5857 C.ar    1  UNL1        0.0227
      7 C          63.9469   83.3673   13.0862 C.ar    1  UNL1        0.0382
      8 C          63.1291   83.1043   11.8565 C.ar    1  UNL1        0.1343
      9 O          62.9560   81.7005   11.3570 O.3     1  UNL1       -0.5055
     10 C          62.4843   84.2450   11.1264 C.ar    1  UNL1        0.0446
     11 C          62.6574   85.6487   11.6260 C.ar    1  UNL1        0.0516
     12 S          62.1458   86.9646   11.1194 S.2     1  UNL1       -0.0633
     13 H          63.3588   80.9879   11.8131 H       1  UNL1        0.2922
     14 C          63.4834   90.4997   12.1070 C.ar    1  UNL1        0.0442
     15 C          64.1653   90.5979   13.4395 C.ar    1  UNL1        0.0058
     16 C          65.2737   91.5877   13.6436 C.ar    1  UNL1        0.0329
     17 C          65.7003   92.4793   12.5153 C.ar    1  UNL1        0.1735
     18 F          66.8088   93.4691   12.7196 F       1  UNL1       -0.2010
     19 C          65.0186   92.3811   11.1829 C.ar    1  UNL1        0.1611
     20 O          65.4452   93.2727   10.0546 O.3     1  UNL1       -0.5034
     21 C          63.9101   91.3913   10.9787 C.ar    1  UNL1        0.0422
     22 H          66.1376   93.8910   10.1821 H       1  UNL1        0.2923
@<TRIPOS>BOND
     1     1     2    2
     2     2    14    1
     3    14    15   ar
     4    15    16   ar
     5    16    17   ar
     6    17    18    1
     7    17    19   ar
     8    19    20    1
     9    19    21   ar
    10     2     3    1
    11     3     4   ar
    12     4     5   ar
    13     5     6   ar
    14     6     7   ar
    15     7     8   ar
    16     8     9    1
    17     8    10   ar
    18    10    11   ar
    19    11    12   ar
    20    21    14   ar
    21    12     3   ar
    22    11     5   ar
    23    20    22    1
    24     9    13    1
