@<TRIPOS>MOLECULE
*****
 26 29 0 0 0
SMALL
GASTEIGER

@<TRIPOS>ATOM
      1 O          62.1690   86.4837   17.5619 O.2     1  UNL1       -0.2749
      2 C          62.9724   86.4982   16.2953 C.2     1  UNL1        0.2252
      3 N          63.5528   87.7857   15.7900 N.am    1  UNL1       -0.2784
      4 C          64.3822   88.1824   14.6048 C.3     1  UNL1        0.1044
      5 C          64.3736   89.6066   15.0754 C.3     1  UNL1        0.1187
      6 C          63.5442   89.2100   16.2606 C.3     1  UNL1        0.1044
      7 C          63.1954   85.2251   15.5339 C.3     1  UNL1        0.0771
      8 C          64.4465   85.0433   14.7266 C.3     1  UNL1        0.0147
      9 C          64.6694   83.7703   13.9653 C.3     1  UNL1        0.0671
     10 C          63.6413   82.6790   14.0114 C.3     1  UNL1        0.2640
     11 F          62.9663   81.3662   13.7448 F       1  UNL1       -0.2043
     12 F          64.6579   82.0413   13.1115 F       1  UNL1       -0.2043
     13 C          62.3902   82.8608   14.8187 C.3     1  UNL1        0.0671
     14 C          62.1673   84.1338   15.5800 C.3     1  UNL1        0.0147
     15 C          64.9540   90.8942   14.5701 C.ar    1  UNL1        0.2395
     16 N          65.3786   91.1764   13.1594 N.ar    1  UNL1       -0.1907
     17 C          65.8987   92.5823   13.1043 C.ar    1  UNL1        0.2033
     18 N          65.7955   93.1689   14.4810 N.ar    1  UNL1       -0.0560
     19 O          65.2117   92.1256   15.3868 O.2     1  UNL1       -0.3369
     20 C          66.4288   93.2791   11.8864 C.ar    1  UNL1        0.0399
     21 C          66.1736   94.7441   11.6899 C.ar    1  UNL1        0.0032
     22 C          66.7038   95.4410   10.4719 C.ar    1  UNL1        0.0010
     23 C          67.4891   94.6728    9.4506 C.ar    1  UNL1        0.0114
     24 C          67.7443   93.2079    9.6471 C.ar    1  UNL1        0.0578
     25 CL         68.5296   92.4397    8.6257 Cl      1  UNL1       -0.0822
     26 C          67.2142   92.5110   10.8650 C.ar    1  UNL1        0.0145
@<TRIPOS>BOND
     1     1     2    2
     2     2     7    1
     3     7     8    1
     4     8     9    1
     5     9    10    1
     6    10    11    1
     7    10    12    1
     8    10    13    1
     9    13    14    1
    10     2     3   am
    11     3     4    1
    12     4     5    1
    13     5    15    1
    14    15    16   ar
    15    16    17   ar
    16    17    20    1
    17    20    21   ar
    18    21    22   ar
    19    22    23   ar
    20    23    24   ar
    21    24    25    1
    22    24    26   ar
    23    17    18   ar
    24    18    19   ar
    25     5     6    1
    26    14     7    1
    27     6     3    1
    28    19    15   ar
    29    26    20   ar
@<TRIPOS>MOLECULE
*****
 26 29 0 0 0
SMALL
GASTEIGER

@<TRIPOS>ATOM
      1 O          66.2188   94.1694   14.6179 O.2     1  UNL1       -0.2749
      2 C          66.0692   93.1021   13.5746 C.2     1  UNL1        0.2252
      3 N          65.5150   91.7596   13.9492 N.am    1  UNL1       -0.2784
      4 C          65.2271   90.4869   13.2093 C.3     1  UNL1        0.1044
      5 C          64.7312   89.8609   14.4790 C.3     1  UNL1        0.1187
      6 C          65.0190   91.1336   15.2189 C.3     1  UNL1        0.1044
      7 C          66.4737   93.3774   12.1566 C.3     1  UNL1        0.0771
      8 C          66.1145   94.6846   11.5145 C.3     1  UNL1        0.0147
      9 C          66.5191   94.9598   10.0966 C.3     1  UNL1        0.0671
     10 C          67.2828   93.9279    9.3208 C.3     1  UNL1        0.2640
     11 F          68.0094   93.2708    8.1849 F       1  UNL1       -0.2043
     12 F          67.1760   95.0069    8.2842 F       1  UNL1       -0.2043
     13 C          67.6420   92.6208    9.9629 C.3     1  UNL1        0.0671
     14 C          67.2374   92.3455   11.3808 C.3     1  UNL1        0.0147
     15 C          64.1769   88.5183   14.8537 C.ar    1  UNL1        0.2395
     16 N          64.1757   87.2924   13.9893 N.ar    1  UNL1       -0.1907
     17 C          63.5247   86.1824   14.7599 C.ar    1  UNL1        0.2033
     18 N          63.1235   86.7222   16.1007 N.ar    1  UNL1       -0.0560
     19 O          63.5267   88.1659   16.1586 O.2     1  UNL1       -0.3369
     20 C          63.3121   84.7790   14.2750 C.ar    1  UNL1        0.0399
     21 C          62.5229   83.8103   15.1048 C.ar    1  UNL1        0.0032
     22 C          62.3103   82.4068   14.6198 C.ar    1  UNL1        0.0010
     23 C          62.8869   81.9722   13.3051 C.ar    1  UNL1        0.0114
     24 C          63.6761   82.9409   12.4753 C.ar    1  UNL1        0.0578
     25 CL         64.2527   82.5062   11.1606 Cl      1  UNL1       -0.0822
     26 C          63.8887   84.3443   12.9602 C.ar    1  UNL1        0.0145
@<TRIPOS>BOND
     1     1     2    2
     2     2     7    1
     3     7     8    1
     4     8     9    1
     5     9    10    1
     6    10    11    1
     7    10    12    1
     8    10    13    1
     9    13    14    1
    10     2     3   am
    11     3     4    1
    12     4     5    1
    13     5    15    1
    14    15    16   ar
    15    16    17   ar
    16    17    20    1
    17    20    21   ar
    18    21    22   ar
    19    22    23   ar
    20    23    24   ar
    21    24    25    1
    22    24    26   ar
    23    17    18   ar
    24    18    19   ar
    25     5     6    1
    26    14     7    1
    27     6     3    1
    28    19    15   ar
    29    26    20   ar
@<TRIPOS>MOLECULE
*****
 26 29 0 0 0
SMALL
GASTEIGER

@<TRIPOS>ATOM
      1 O          65.9466   93.7224   14.2876 O.2     1  UNL1       -0.2749
      2 C          65.6953   93.1868   12.9093 C.2     1  UNL1        0.2252
      3 N          64.9494   91.8978   12.7300 N.am    1  UNL1       -0.2784
      4 C          64.5213   91.0752   11.5509 C.3     1  UNL1        0.1044
      5 C          63.8946   90.0749   12.4764 C.3     1  UNL1        0.1187
      6 C          64.3226   90.8975   13.6555 C.3     1  UNL1        0.1044
      7 C          66.1899   93.9402   11.7101 C.3     1  UNL1        0.0771
      8 C          66.7873   93.1976   10.5518 C.3     1  UNL1        0.0147
      9 C          67.2819   93.9510    9.3528 C.3     1  UNL1        0.0671
     10 C          67.1791   95.4469    9.3121 C.3     1  UNL1        0.2640
     11 F          67.2982   96.8547    8.8082 F       1  UNL1       -0.2043
     12 F          67.8178   95.1933    7.9788 F       1  UNL1       -0.2043
     13 C          66.5818   96.1895   10.4704 C.3     1  UNL1        0.0671
     14 C          66.0872   95.4361   11.6694 C.3     1  UNL1        0.0147
     15 C          63.1486   88.7859   12.2972 C.ar    1  UNL1        0.2395
     16 N          63.6028   87.4329   12.7588 N.ar    1  UNL1       -0.1907
     17 C          62.5524   86.4344   12.3717 C.ar    1  UNL1        0.2033
     18 N          61.4492   87.1703   11.6709 N.ar    1  UNL1       -0.0560
     19 O          61.8177   88.6236   11.6249 O.2     1  UNL1       -0.3369
     20 C          62.5975   84.9590   12.6387 C.ar    1  UNL1        0.0399
     21 C          62.3738   84.4412   14.0285 C.ar    1  UNL1        0.0032
     22 C          62.4188   82.9658   14.2954 C.ar    1  UNL1        0.0010
     23 C          62.6875   82.0083   13.1725 C.ar    1  UNL1        0.0114
     24 C          62.9112   82.5261   11.7827 C.ar    1  UNL1        0.0578
     25 CL         63.1799   81.5687   10.6597 Cl      1  UNL1       -0.0822
     26 C          62.8662   84.0015   11.5157 C.ar    1  UNL1        0.0145
@<TRIPOS>BOND
     1     1     2    2
     2     2     7    1
     3     7     8    1
     4     8     9    1
     5     9    10    1
     6    10    11    1
     7    10    12    1
     8    10    13    1
     9    13    14    1
    10     2     3   am
    11     3     4    1
    12     4     5    1
    13     5    15    1
    14    15    16   ar
    15    16    17   ar
    16    17    20    1
    17    20    21   ar
    18    21    22   ar
    19    22    23   ar
    20    23    24   ar
    21    24    25    1
    22    24    26   ar
    23    17    18   ar
    24    18    19   ar
    25     5     6    1
    26    14     7    1
    27     6     3    1
    28    19    15   ar
    29    26    20   ar
@<TRIPOS>MOLECULE
*****
 26 29 0 0 0
SMALL
GASTEIGER

@<TRIPOS>ATOM
      1 O          64.0984   92.1825   16.4572 O.2     1  UNL1       -0.2749
      2 C          64.3760   91.3289   15.2554 C.2     1  UNL1        0.2252
      3 N          64.0795   89.8590   15.2947 N.am    1  UNL1       -0.2784
      4 C          64.2176   88.7228   14.3252 C.3     1  UNL1        0.1044
      5 C          63.6600   87.7803   15.3503 C.3     1  UNL1        0.1187
      6 C          63.5219   88.9166   16.3198 C.3     1  UNL1        0.1044
      7 C          64.9503   91.9452   14.0142 C.3     1  UNL1        0.0771
      8 C          64.3862   91.5902   12.6705 C.3     1  UNL1        0.0147
      9 C          64.9605   92.2065   11.4294 C.3     1  UNL1        0.0671
     10 C          66.0989   93.1779   11.5321 C.3     1  UNL1        0.2640
     11 F          67.1706   94.1422   11.1181 F       1  UNL1       -0.2043
     12 F          65.9070   93.1577   10.0446 F       1  UNL1       -0.2043
     13 C          66.6630   93.5329   12.8758 C.3     1  UNL1        0.0671
     14 C          66.0887   92.9166   14.1169 C.3     1  UNL1        0.0147
     15 C          63.3634   86.3104   15.3897 C.ar    1  UNL1        0.2395
     16 N          63.3224   85.3873   14.2081 N.ar    1  UNL1       -0.1907
     17 C          62.9894   84.0120   14.7058 C.ar    1  UNL1        0.2033
     18 N          62.8247   84.0852   16.1949 N.ar    1  UNL1       -0.0560
     19 O          63.0558   85.5057   16.6175 O.2     1  UNL1       -0.3369
     20 C          62.8463   82.7798   13.8623 C.ar    1  UNL1        0.0399
     21 C          62.1888   81.5561   14.4279 C.ar    1  UNL1        0.0032
     22 C          62.0457   80.3239   13.5845 C.ar    1  UNL1        0.0010
     23 C          62.5601   80.3156   12.1755 C.ar    1  UNL1        0.0114
     24 C          63.2176   81.5393   11.6099 C.ar    1  UNL1        0.0578
     25 CL         63.7320   81.5310   10.2009 Cl      1  UNL1       -0.0822
     26 C          63.3607   82.7715   12.4534 C.ar    1  UNL1        0.0145
@<TRIPOS>BOND
     1     1     2    2
     2     2     7    1
     3     7     8    1
     4     8     9    1
     5     9    10    1
     6    10    11    1
     7    10    12    1
     8    10    13    1
     9    13    14    1
    10     2     3   am
    11     3     4    1
    12     4     5    1
    13     5    15    1
    14    15    16   ar
    15    16    17   ar
    16    17    20    1
    17    20    21   ar
    18    21    22   ar
    19    22    23   ar
    20    23    24   ar
    21    24    25    1
    22    24    26   ar
    23    17    18   ar
    24    18    19   ar
    25     5     6    1
    26    14     7    1
    27     6     3    1
    28    19    15   ar
    29    26    20   ar
@<TRIPOS>MOLECULE
*****
 26 29 0 0 0
SMALL
GASTEIGER

@<TRIPOS>ATOM
      1 O          64.5378   92.3614   12.2955 O.2     1  UNL1       -0.2749
      2 C          65.1844   91.5924   13.4093 C.2     1  UNL1        0.2252
      3 N          64.7205   90.2022   13.7288 N.am    1  UNL1       -0.2784
      4 C          65.1098   89.1588   14.7337 C.3     1  UNL1        0.1044
      5 C          64.0643   88.2362   14.1808 C.3     1  UNL1        0.1187
      6 C          63.6750   89.2796   13.1759 C.3     1  UNL1        0.1044
      7 C          66.2951   92.2135   14.2034 C.3     1  UNL1        0.0771
      8 C          67.2210   91.3462   15.0036 C.3     1  UNL1        0.0147
      9 C          68.3316   91.9673   15.7977 C.3     1  UNL1        0.0671
     10 C          68.5163   93.4559   15.7917 C.3     1  UNL1        0.2640
     11 F          69.0920   94.8061   16.1009 F       1  UNL1       -0.2043
     12 F          69.6422   93.0574   16.6992 F       1  UNL1       -0.2043
     13 C          67.5903   94.3233   14.9916 C.3     1  UNL1        0.0671
     14 C          66.4798   93.7021   14.1974 C.3     1  UNL1        0.0147
     15 C          63.6003   86.8460   14.5004 C.ar    1  UNL1        0.2395
     16 N          63.5183   85.7003   13.5357 N.ar    1  UNL1       -0.1907
     17 C          63.0042   84.5037   14.2798 C.ar    1  UNL1        0.2033
     18 N          62.7685   84.9098   15.7044 N.ar    1  UNL1       -0.0560
     19 O          63.1370   86.3574   15.8406 O.2     1  UNL1       -0.3369
     20 C          62.7673   83.1402   13.7010 C.ar    1  UNL1        0.0399
     21 C          62.0862   82.0853   14.5213 C.ar    1  UNL1        0.0032
     22 C          61.8493   80.7218   13.9424 C.ar    1  UNL1        0.0010
     23 C          62.2936   80.4135   12.5433 C.ar    1  UNL1        0.0114
     24 C          62.9747   81.4685   11.7230 C.ar    1  UNL1        0.0578
     25 CL         63.4190   81.1601   10.3239 Cl      1  UNL1       -0.0822
     26 C          63.2116   82.8319   12.3019 C.ar    1  UNL1        0.0145
@<TRIPOS>BOND
     1     1     2    2
     2     2     7    1
     3     7     8    1
     4     8     9    1
     5     9    10    1
     6    10    11    1
     7    10    12    1
     8    10    13    1
     9    13    14    1
    10     2     3   am
    11     3     4    1
    12     4     5    1
    13     5    15    1
    14    15    16   ar
    15    16    17   ar
    16    17    20    1
    17    20    21   ar
    18    21    22   ar
    19    22    23   ar
    20    23    24   ar
    21    24    25    1
    22    24    26   ar
    23    17    18   ar
    24    18    19   ar
    25     5     6    1
    26    14     7    1
    27     6     3    1
    28    19    15   ar
    29    26    20   ar
@<TRIPOS>MOLECULE
*****
 26 29 0 0 0
SMALL
GASTEIGER

@<TRIPOS>ATOM
      1 O          66.1371   93.8868   14.8653 O.2     1  UNL1       -0.2749
      2 C          65.9866   92.8981   13.7474 C.2     1  UNL1        0.2252
      3 N          65.4620   91.5214   14.0292 N.am    1  UNL1       -0.2784
      4 C          65.1824   90.3027   13.2006 C.3     1  UNL1        0.1044
      5 C          64.7200   89.5745   14.4278 C.3     1  UNL1        0.1187
      6 C          64.9996   90.7932   15.2564 C.3     1  UNL1        0.1044
      7 C          66.3609   93.2861   12.3475 C.3     1  UNL1        0.0771
      8 C          67.0912   92.3135   11.4695 C.3     1  UNL1        0.0147
      9 C          67.4654   92.7015   10.0698 C.3     1  UNL1        0.0671
     10 C          67.1094   94.0621    9.5480 C.3     1  UNL1        0.2640
     11 F          66.9930   95.2251    8.6079 F       1  UNL1       -0.2043
     12 F          67.7992   93.4934    8.3435 F       1  UNL1       -0.2043
     13 C          66.3791   95.0346   10.4260 C.3     1  UNL1        0.0671
     14 C          66.0049   94.6466   11.8257 C.3     1  UNL1        0.0147
     15 C          64.1953   88.1977   14.7097 C.ar    1  UNL1        0.2395
     16 N          64.2342   87.0297   13.7695 N.ar    1  UNL1       -0.1907
     17 C          63.6026   85.8575   14.4600 C.ar    1  UNL1        0.2033
     18 N          63.1732   86.3011   15.8271 N.ar    1  UNL1       -0.0560
     19 O          63.5396   87.7474   15.9813 O.2     1  UNL1       -0.3369
     20 C          63.4304   84.4830   13.8846 C.ar    1  UNL1        0.0399
     21 C          64.2990   84.0316   12.7480 C.ar    1  UNL1        0.0032
     22 C          64.1269   82.6571   12.1726 C.ar    1  UNL1        0.0010
     23 C          63.0862   81.7341   12.7337 C.ar    1  UNL1        0.0114
     24 C          62.2176   82.1854   13.8702 C.ar    1  UNL1        0.0578
     25 CL         61.1769   81.2623   14.4313 Cl      1  UNL1       -0.0822
     26 C          62.3897   83.5599   14.4456 C.ar    1  UNL1        0.0145
@<TRIPOS>BOND
     1     1     2    2
     2     2     7    1
     3     7     8    1
     4     8     9    1
     5     9    10    1
     6    10    11    1
     7    10    12    1
     8    10    13    1
     9    13    14    1
    10     2     3   am
    11     3     4    1
    12     4     5    1
    13     5    15    1
    14    15    16   ar
    15    16    17   ar
    16    17    20    1
    17    20    21   ar
    18    21    22   ar
    19    22    23   ar
    20    23    24   ar
    21    24    25    1
    22    24    26   ar
    23    17    18   ar
    24    18    19   ar
    25     5     6    1
    26    14     7    1
    27     6     3    1
    28    19    15   ar
    29    26    20   ar
@<TRIPOS>MOLECULE
*****
 26 29 0 0 0
SMALL
GASTEIGER

@<TRIPOS>ATOM
      1 O          63.6285   86.3734   13.4257 O.2     1  UNL1       -0.2749
      2 C          62.8110   85.5165   12.5053 C.2     1  UNL1        0.2252
      3 N          62.0069   86.1490   11.4083 N.am    1  UNL1       -0.2784
      4 C          61.0991   85.6383   10.3289 C.3     1  UNL1        0.1044
      5 C          60.8698   87.0435    9.8569 C.3     1  UNL1        0.1187
      6 C          61.7777   87.5542   10.9362 C.3     1  UNL1        0.1044
      7 C          62.7974   84.0269   12.6819 C.3     1  UNL1        0.0771
      8 C          63.0438   83.1299   11.5052 C.3     1  UNL1        0.0147
      9 C          63.0303   81.6404   11.6818 C.3     1  UNL1        0.0671
     10 C          62.7704   81.0480   13.0352 C.3     1  UNL1        0.2640
     11 F          62.5722   80.0199   14.1093 F       1  UNL1       -0.2043
     12 F          62.9479   79.7939   12.2315 F       1  UNL1       -0.2043
     13 C          62.5240   81.9450   14.2118 C.3     1  UNL1        0.0671
     14 C          62.5376   83.4345   14.0352 C.3     1  UNL1        0.0147
     15 C          60.0658   87.6761    8.7598 C.ar    1  UNL1        0.2395
     16 N          60.4901   88.8403    7.9145 N.ar    1  UNL1       -0.1907
     17 C          59.3828   89.1392    6.9478 C.ar    1  UNL1        0.2033
     18 N          58.2741   88.1598    7.1957 N.ar    1  UNL1       -0.0560
     19 O          58.6963   87.2555    8.3156 O.2     1  UNL1       -0.3369
     20 C          59.3840   90.2266    5.9146 C.ar    1  UNL1        0.0399
     21 C          58.1101   90.9441    5.5796 C.ar    1  UNL1        0.0032
     22 C          58.1113   92.0316    4.5464 C.ar    1  UNL1        0.0010
     23 C          59.3864   92.4015    3.8483 C.ar    1  UNL1        0.0114
     24 C          60.6603   91.6840    4.1834 C.ar    1  UNL1        0.0578
     25 CL         61.9354   92.0539    3.4853 Cl      1  UNL1       -0.0822
     26 C          60.6591   90.5965    5.2166 C.ar    1  UNL1        0.0145
@<TRIPOS>BOND
     1     1     2    2
     2     2     7    1
     3     7     8    1
     4     8     9    1
     5     9    10    1
     6    10    11    1
     7    10    12    1
     8    10    13    1
     9    13    14    1
    10     2     3   am
    11     3     4    1
    12     4     5    1
    13     5    15    1
    14    15    16   ar
    15    16    17   ar
    16    17    20    1
    17    20    21   ar
    18    21    22   ar
    19    22    23   ar
    20    23    24   ar
    21    24    25    1
    22    24    26   ar
    23    17    18   ar
    24    18    19   ar
    25     5     6    1
    26    14     7    1
    27     6     3    1
    28    19    15   ar
    29    26    20   ar
@<TRIPOS>MOLECULE
*****
 26 29 0 0 0
SMALL
GASTEIGER

@<TRIPOS>ATOM
      1 O          62.7202   85.3679   17.0039 O.2     1  UNL1       -0.2749
      2 C          63.1821   85.6495   15.6048 C.2     1  UNL1        0.2252
      3 N          63.6618   87.0218   15.2353 N.am    1  UNL1       -0.2784
      4 C          64.1822   87.6619   13.9825 C.3     1  UNL1        0.1044
      5 C          64.3402   88.9626   14.7126 C.3     1  UNL1        0.1187
      6 C          63.8197   88.3226   15.9654 C.3     1  UNL1        0.1044
      7 C          63.1642   84.5587   14.5753 C.3     1  UNL1        0.0771
      8 C          63.2655   83.1240   15.0009 C.3     1  UNL1        0.0147
      9 C          63.2476   82.0333   13.9714 C.3     1  UNL1        0.0671
     10 C          63.1285   82.3773   12.5162 C.3     1  UNL1        0.2640
     11 F          63.0330   82.2018   11.0296 F       1  UNL1       -0.2043
     12 F          63.1966   80.8816   12.4256 F       1  UNL1       -0.2043
     13 C          63.0272   83.8120   12.0906 C.3     1  UNL1        0.0671
     14 C          63.0451   84.9027   13.1201 C.3     1  UNL1        0.0147
     15 C          64.8199   90.3350   14.3431 C.ar    1  UNL1        0.2395
     16 N          65.3267   90.7590   12.9965 N.ar    1  UNL1       -0.1907
     17 C          65.6970   92.2103   13.0765 C.ar    1  UNL1        0.2033
     18 N          65.4190   92.6833   14.4725 N.ar    1  UNL1       -0.0560
     19 O          64.8769   91.5243   15.2553 O.2     1  UNL1       -0.3369
     20 C          66.2484   93.0426   11.9569 C.ar    1  UNL1        0.0399
     21 C          66.9697   92.3846   10.8183 C.ar    1  UNL1        0.0032
     22 C          67.5211   93.2168    9.6987 C.ar    1  UNL1        0.0010
     23 C          67.3513   94.7070    9.7180 C.ar    1  UNL1        0.0114
     24 C          66.6301   95.3650   10.8567 C.ar    1  UNL1        0.0578
     25 CL         66.4602   96.8552   10.8759 Cl      1  UNL1       -0.0822
     26 C          66.0786   94.5328   11.9762 C.ar    1  UNL1        0.0145
@<TRIPOS>BOND
     1     1     2    2
     2     2     7    1
     3     7     8    1
     4     8     9    1
     5     9    10    1
     6    10    11    1
     7    10    12    1
     8    10    13    1
     9    13    14    1
    10     2     3   am
    11     3     4    1
    12     4     5    1
    13     5    15    1
    14    15    16   ar
    15    16    17   ar
    16    17    20    1
    17    20    21   ar
    18    21    22   ar
    19    22    23   ar
    20    23    24   ar
    21    24    25    1
    22    24    26   ar
    23    17    18   ar
    24    18    19   ar
    25     5     6    1
    26    14     7    1
    27     6     3    1
    28    19    15   ar
    29    26    20   ar
@<TRIPOS>MOLECULE
*****
 26 29 0 0 0
SMALL
GASTEIGER

@<TRIPOS>ATOM
      1 O          64.2642   82.4878   16.1416 O.2     1  UNL1       -0.2749
      2 C          64.0117   83.2536   14.8768 C.2     1  UNL1        0.2252
      3 N          64.0149   84.7535   14.8948 N.am    1  UNL1       -0.2784
      4 C          63.8096   85.8270   13.8674 C.3     1  UNL1        0.1044
      5 C          64.0193   86.8746   14.9202 C.3     1  UNL1        0.1187
      6 C          64.2246   85.8011   15.9476 C.3     1  UNL1        0.1044
      7 C          63.7559   82.5194   13.5939 C.3     1  UNL1        0.0771
      8 C          64.2407   83.0897   12.2940 C.3     1  UNL1        0.0147
      9 C          63.9849   82.3555   11.0112 C.3     1  UNL1        0.0671
     10 C          63.2445   81.0511   11.0284 C.3     1  UNL1        0.2640
     11 F          62.5939   79.7931   10.5344 F       1  UNL1       -0.2043
     12 F          63.5033   81.1844    9.5569 F       1  UNL1       -0.2043
     13 C          62.7597   80.4809   12.3283 C.3     1  UNL1        0.0671
     14 C          63.0154   81.2151   13.6111 C.3     1  UNL1        0.0147
     15 C          64.0225   88.3746   14.9382 C.ar    1  UNL1        0.2395
     16 N          64.9276   89.2640   14.1384 N.ar    1  UNL1       -0.1907
     17 C          64.5856   90.6875   14.4651 C.ar    1  UNL1        0.2033
     18 N          63.4692   90.6778   15.4669 N.ar    1  UNL1       -0.0560
     19 O          63.1212   89.2483   15.7592 O.2     1  UNL1       -0.3369
     20 C          65.2444   91.9067   13.8909 C.ar    1  UNL1        0.0399
     21 C          66.0971   92.7794   14.7632 C.ar    1  UNL1        0.0032
     22 C          66.7559   93.9986   14.1890 C.ar    1  UNL1        0.0010
     23 C          66.5620   94.3449   12.7425 C.ar    1  UNL1        0.0114
     24 C          65.7092   93.4721   11.8702 C.ar    1  UNL1        0.0578
     25 CL         65.5153   93.8184   10.4237 Cl      1  UNL1       -0.0822
     26 C          65.0504   92.2530   12.4444 C.ar    1  UNL1        0.0145
@<TRIPOS>BOND
     1     1     2    2
     2     2     7    1
     3     7     8    1
     4     8     9    1
     5     9    10    1
     6    10    11    1
     7    10    12    1
     8    10    13    1
     9    13    14    1
    10     2     3   am
    11     3     4    1
    12     4     5    1
    13     5    15    1
    14    15    16   ar
    15    16    17   ar
    16    17    20    1
    17    20    21   ar
    18    21    22   ar
    19    22    23   ar
    20    23    24   ar
    21    24    25    1
    22    24    26   ar
    23    17    18   ar
    24    18    19   ar
    25     5     6    1
    26    14     7    1
    27     6     3    1
    28    19    15   ar
    29    26    20   ar
