@<TRIPOS>MOLECULE
*****
 41 46 0 0 0
SMALL
GASTEIGER

@<TRIPOS>ATOM
      1 C          64.0548   84.2518   13.9852 C.2     1  UNL1        0.1558
      2 N          64.8431   84.8413   15.1170 N.2     1  UNL1       -0.2402
      3 C          64.7740   86.3353   15.0014 C.2     1  UNL1        0.0929
      4 C          63.9429   86.6691   13.7982 C.2     1  UNL1        0.0093
      5 C          63.4984   85.3815   13.1701 C.3     1  UNL1        0.1374
      6 N          62.6445   85.4040   11.9371 N.pl3   1  UNL1       -0.3282
      7 C          62.2350   86.7142   11.3322 C.2     1  UNL1        0.0420
      8 C          62.6795   88.0017   11.9603 C.2     1  UNL1        0.0356
      9 C          62.2701   89.3119   11.3554 C.2     1  UNL1        0.1907
     10 O          62.7146   90.5995   11.9834 O.2     1  UNL1       -0.2898
     11 C          61.4161   89.3344   10.1224 C.3     1  UNL1        0.1629
     12 N          60.9716   88.0468    9.4943 N.am    1  UNL1       -0.2658
     13 C          60.1176   88.0693    8.2613 C.2     1  UNL1        0.2421
     14 O          59.6731   86.7817    7.6333 O.2     1  UNL1       -0.2734
     15 C          61.3810   86.7367   10.0992 C.3     1  UNL1        0.1345
     16 C          63.5335   87.9792   13.1932 C.3     1  UNL1        0.1050
     17 H          62.3527   84.5589   11.5249 H       1  UNL1        0.1471
     18 C          63.9780   89.2669   13.8213 C.ar    1  UNL1        0.1312
     19 C          63.3538   89.9274   15.0146 C.ar    1  UNL1        0.0373
     20 C          64.1148   91.1888   15.2971 C.ar    1  UNL1        0.0472
     21 C          65.2093   91.3078   14.2783 C.ar    1  UNL1        0.1774
     22 O          65.1248   90.1200   13.3662 O.2     1  UNL1       -0.4506
     23 S          66.2123   92.4195   14.1876 S.3     1  UNL1       -0.0117
     24 C          66.4439   93.1158   12.8793 C.2     1  UNL1        0.1967
     25 N          67.0925   92.5188   11.6657 N.2     1  UNL1       -0.2197
     26 C          67.1171   93.5653   10.5913 C.2     1  UNL1        0.0973
     27 C          67.6344   93.5464    9.1833 C.2     1  UNL1        0.0201
     28 C          67.5184   94.7712    8.3252 C.2     1  UNL1       -0.0026
     29 C          66.8850   96.0149    8.8749 C.2     1  UNL1       -0.0197
     30 C          66.3677   96.0337   10.2827 C.3     1  UNL1        0.0734
     31 C          66.4837   94.8089   11.1409 C.2     1  UNL1        0.0831
     32 N          66.0677   94.5311   12.5550 N.2     1  UNL1       -0.2234
     33 C          59.7082   89.3795    7.6564 C.3     1  UNL1        0.1518
     34 N          58.9452   89.4035    6.3652 N.3     1  UNL1       -0.3135
     35 H          59.5360   89.0461    5.6145 H       1  UNL1        0.1193
     36 H          58.6673   90.3616    6.1523 H       1  UNL1        0.1193
     37 C          63.8574   82.7895   13.7157 C.2     1  UNL1        0.3569
     38 O          63.0167   81.9628   14.6430 O.2     1  UNL1       -0.2435
     39 O          64.5007   82.1538   12.5191 O.3     1  UNL1       -0.4446
     40 C          64.2165   83.0002   10.0792 C.3     1  UNL1        0.0513
     41 C          63.7735   82.1168   11.2077 C.3     1  UNL1        0.2089
@<TRIPOS>BOND
     1    40    41    1
     2    41    39    1
     3    39    37    1
     4    37    38    2
     5    37     1    1
     6     1     2    2
     7     2     3    1
     8     3     4    2
     9     4     5    1
    10     5     6    1
    11     6     7    1
    12     7     8    2
    13     8     9    1
    14     9    10    2
    15     9    11    1
    16    11    12    1
    17    12    13   am
    18    13    14    2
    19    13    33    1
    20    33    34    1
    21    12    15    1
    22     8    16    1
    23    16    18    1
    24    18    19   ar
    25    19    20   ar
    26    20    21   ar
    27    21    23    1
    28    23    24    1
    29    24    25    2
    30    25    26    1
    31    26    27    2
    32    27    28    1
    33    28    29    2
    34    29    30    1
    35    30    31    1
    36    31    32    2
    37    21    22   ar
    38     5     1    1
    39    15     7    1
    40    22    18   ar
    41    16     4    1
    42    32    24    1
    43    31    26    1
    44     6    17    1
    45    34    35    1
    46    34    36    1
@<TRIPOS>MOLECULE
*****
 41 46 0 0 0
SMALL
GASTEIGER

@<TRIPOS>ATOM
      1 C          60.2782   88.8617    8.9074 C.2     1  UNL1        0.1558
      2 N          60.5054   90.3146    9.2035 N.2     1  UNL1       -0.2402
      3 C          61.4140   90.4086   10.3933 C.2     1  UNL1        0.0929
      4 C          61.7484   89.0139   10.8325 C.2     1  UNL1        0.0093
      5 C          61.0465   88.0579    9.9142 C.3     1  UNL1        0.1374
      6 N          61.1976   86.5789   10.1134 N.pl3   1  UNL1       -0.3282
      7 C          62.0506   86.0559   11.2309 C.2     1  UNL1        0.0420
      8 C          62.7525   87.0119   12.1492 C.2     1  UNL1        0.0356
      9 C          63.6055   86.4890   13.2668 C.2     1  UNL1        0.1907
     10 O          64.3074   87.4449   14.1851 O.2     1  UNL1       -0.2898
     11 C          63.7566   85.0100   13.4660 C.3     1  UNL1        0.1629
     12 N          63.0547   84.0539   12.5477 N.am    1  UNL1       -0.2658
     13 C          63.2058   82.5748   12.7468 C.2     1  UNL1        0.2421
     14 O          62.5038   81.6188   11.8285 O.2     1  UNL1       -0.2734
     15 C          62.2017   84.5768   11.4301 C.3     1  UNL1        0.1345
     16 C          62.6014   88.4909   11.9500 C.3     1  UNL1        0.1050
     17 H          60.7369   85.9514    9.5106 H       1  UNL1        0.1471
     18 C          63.3034   89.4469   12.8684 C.ar    1  UNL1        0.1312
     19 C          62.9174   89.7527   14.2852 C.ar    1  UNL1        0.0373
     20 C          63.8900   90.7597   14.8236 C.ar    1  UNL1        0.0472
     21 C          64.8771   91.0764   13.7394 C.ar    1  UNL1        0.1774
     22 O          64.5145   90.2651   12.5310 O.2     1  UNL1       -0.4506
     23 S          66.0251   92.0360   13.8451 S.3     1  UNL1       -0.0117
     24 C          66.3214   92.9784   12.7162 C.2     1  UNL1        0.1967
     25 N          66.9392   92.6105   11.3998 N.2     1  UNL1       -0.2197
     26 C          67.0515   93.8588   10.5756 C.2     1  UNL1        0.0973
     27 C          67.5823   94.1052    9.1944 C.2     1  UNL1        0.0201
     28 C          67.5646   95.4909    8.6203 C.2     1  UNL1       -0.0026
     29 C          67.0161   96.6302    9.4274 C.2     1  UNL1       -0.0197
     30 C          66.4853   96.3837   10.8086 C.3     1  UNL1        0.0734
     31 C          66.5030   94.9980   11.3826 C.2     1  UNL1        0.0831
     32 N          66.0518   94.4539   12.7056 N.2     1  UNL1       -0.2234
     33 C          64.0588   82.0519   13.8644 C.3     1  UNL1        0.1518
     34 N          63.9363   80.6201   14.2945 N.3     1  UNL1       -0.3135
     35 H          63.0124   80.4641   14.6976 H       1  UNL1        0.1193
     36 H          64.6510   80.4123   14.9920 H       1  UNL1        0.1193
     37 C          59.4315   88.3097    7.7991 C.2     1  UNL1        0.3569
     38 O          59.3431   86.8270    7.5901 O.2     1  UNL1       -0.2435
     39 O          58.6732   89.2403    6.8998 O.3     1  UNL1       -0.4446
     40 C          58.7084   91.2193    5.2168 C.3     1  UNL1        0.0513
     41 C          59.4089   90.0823    5.8998 C.3     1  UNL1        0.2089
@<TRIPOS>BOND
     1    40    41    1
     2    41    39    1
     3    39    37    1
     4    37    38    2
     5    37     1    1
     6     1     2    2
     7     2     3    1
     8     3     4    2
     9     4     5    1
    10     5     6    1
    11     6     7    1
    12     7     8    2
    13     8     9    1
    14     9    10    2
    15     9    11    1
    16    11    12    1
    17    12    13   am
    18    13    14    2
    19    13    33    1
    20    33    34    1
    21    12    15    1
    22     8    16    1
    23    16    18    1
    24    18    19   ar
    25    19    20   ar
    26    20    21   ar
    27    21    23    1
    28    23    24    1
    29    24    25    2
    30    25    26    1
    31    26    27    2
    32    27    28    1
    33    28    29    2
    34    29    30    1
    35    30    31    1
    36    31    32    2
    37    21    22   ar
    38     5     1    1
    39    15     7    1
    40    22    18   ar
    41    16     4    1
    42    32    24    1
    43    31    26    1
    44     6    17    1
    45    34    35    1
    46    34    36    1
