@<TRIPOS>MOLECULE
*****
 28 31 0 0 0
SMALL
GASTEIGER

@<TRIPOS>ATOM
      1 C          64.0464   90.3991   15.7119 C.2     1  UNL1        0.2525
      2 O          63.3972   91.0358   16.9048 O.2     1  UNL1       -0.2698
      3 N          63.8313   88.9416   15.4296 N.am    1  UNL1       -0.2660
      4 C          64.4118   88.1710   14.2811 C.3     1  UNL1        0.1236
      5 C          63.9372   86.7521   14.3880 C.ar    1  UNL1        0.0338
      6 C          64.0026   85.3988   13.7443 C.ar    1  UNL1        0.0990
      7 N          63.1692   84.4562   14.5609 N.ar    1  UNL1       -0.2287
      8 N          62.5887   85.2269   15.7095 N.ar    1  UNL1       -0.1680
      9 C          63.0633   86.6458   15.6026 C.ar    1  UNL1        0.0981
     10 C          62.9979   87.9991   16.2463 C.3     1  UNL1        0.1414
     11 C          64.4440   91.5412   13.4123 C.ar    1  UNL1        0.1427
     12 C          65.3084   92.3619   12.5018 C.ar    1  UNL1        0.0377
     13 C          66.6395   92.8613   12.9799 C.ar    1  UNL1        0.0134
     14 C          67.1063   92.5400   14.3688 C.ar    1  UNL1        0.0688
     15 C          66.2418   91.7192   15.2794 C.ar    1  UNL1        0.0178
     16 C          64.9107   91.2198   14.8012 C.ar    1  UNL1        0.0881
     17 C          68.4374   93.0394   14.8469 C.1     1  UNL1        0.1004
     18 N          69.7686   93.5388   15.3251 N.1     1  UNL1       -0.1908
     19 O          63.1128   91.0418   12.9342 O.3     1  UNL1       -0.4790
     20 C          63.1416   91.2235   10.3426 C.3     1  UNL1        0.0472
     21 C          62.9944   90.3964   11.5853 C.3     1  UNL1        0.1661
     22 C          62.7287   88.9240   11.4792 C.3     1  UNL1        0.0472
     23 C          62.9541   82.9988   14.2787 C.ar    1  UNL1        0.0828
     24 C          64.0973   82.1492   13.8084 C.ar    1  UNL1        0.0191
     25 C          63.8823   80.6918   13.5262 C.ar    1  UNL1        0.0015
     26 C          62.5239   80.0839   13.7142 C.ar    1  UNL1        0.0001
     27 C          61.3806   80.9336   14.1845 C.ar    1  UNL1        0.0015
     28 C          61.5957   82.3909   14.4667 C.ar    1  UNL1        0.0191
@<TRIPOS>BOND
     1    20    21    1
     2    21    22    1
     3    21    19    1
     4    19    11    1
     5    11    12   ar
     6    12    13   ar
     7    13    14   ar
     8    14    17    1
     9    17    18    3
    10    14    15   ar
    11    15    16   ar
    12    16     1    1
    13     1     2    2
    14     1     3   am
    15     3     4    1
    16     4     5    1
    17     5     6   ar
    18     6     7   ar
    19     7    23    1
    20    23    24   ar
    21    24    25   ar
    22    25    26   ar
    23    26    27   ar
    24    27    28   ar
    25     7     8   ar
    26     8     9   ar
    27     9    10    1
    28    16    11   ar
    29    10     3    1
    30     9     5   ar
    31    28    23   ar
@<TRIPOS>MOLECULE
*****
 28 31 0 0 0
SMALL
GASTEIGER

@<TRIPOS>ATOM
      1 C          63.4777   90.7156   11.7298 C.2     1  UNL1        0.2525
      2 O          62.7368   91.3988   10.6189 O.2     1  UNL1       -0.2698
      3 N          63.2933   89.2451   11.9612 N.am    1  UNL1       -0.2660
      4 C          63.9632   88.4294   13.0269 C.3     1  UNL1        0.1236
      5 C          63.4904   87.0122   12.8917 C.ar    1  UNL1        0.0338
      6 C          63.6123   85.6322   13.4668 C.ar    1  UNL1        0.0990
      7 N          62.7255   84.7192   12.6730 N.ar    1  UNL1       -0.2287
      8 N          62.0556   85.5350   11.6073 N.ar    1  UNL1       -0.1680
      9 C          62.5283   86.9521   11.7425 C.ar    1  UNL1        0.0981
     10 C          62.4065   88.3321   11.1673 C.3     1  UNL1        0.1414
     11 C          65.5081   92.3141   12.0001 C.ar    1  UNL1        0.1427
     12 C          66.4334   93.1013   12.8797 C.ar    1  UNL1        0.0377
     13 C          66.2539   93.0776   14.3688 C.ar    1  UNL1        0.0134
     14 C          65.1491   92.2665   14.9782 C.ar    1  UNL1        0.0688
     15 C          64.2237   91.4792   14.0984 C.ar    1  UNL1        0.0178
     16 C          64.4031   91.5029   12.6094 C.ar    1  UNL1        0.0881
     17 C          64.9696   92.2428   16.4672 C.1     1  UNL1        0.1004
     18 N          64.7901   92.2190   17.9562 N.1     1  UNL1       -0.1908
     19 O          65.6875   92.3378   10.5110 O.3     1  UNL1       -0.4790
     20 C          66.9751   94.3447    9.4791 C.3     1  UNL1        0.0472
     21 C          66.9397   92.9100    9.9156 C.3     1  UNL1        0.1661
     22 C          68.1566   92.0475    9.7566 C.3     1  UNL1        0.0472
     23 C          62.5411   83.2488   12.9043 C.ar    1  UNL1        0.0828
     24 C          61.9719   82.7594   14.2030 C.ar    1  UNL1        0.0191
     25 C          61.7874   81.2888   14.4344 C.ar    1  UNL1        0.0015
     26 C          62.1721   80.3077   13.3670 C.ar    1  UNL1        0.0001
     27 C          62.7413   80.7971   12.0682 C.ar    1  UNL1        0.0015
     28 C          62.9258   82.2675   11.8369 C.ar    1  UNL1        0.0191
@<TRIPOS>BOND
     1    20    21    1
     2    21    22    1
     3    21    19    1
     4    19    11    1
     5    11    12   ar
     6    12    13   ar
     7    13    14   ar
     8    14    17    1
     9    17    18    3
    10    14    15   ar
    11    15    16   ar
    12    16     1    1
    13     1     2    2
    14     1     3   am
    15     3     4    1
    16     4     5    1
    17     5     6   ar
    18     6     7   ar
    19     7    23    1
    20    23    24   ar
    21    24    25   ar
    22    25    26   ar
    23    26    27   ar
    24    27    28   ar
    25     7     8   ar
    26     8     9   ar
    27     9    10    1
    28    16    11   ar
    29    10     3    1
    30     9     5   ar
    31    28    23   ar
@<TRIPOS>MOLECULE
*****
 28 31 0 0 0
SMALL
GASTEIGER

@<TRIPOS>ATOM
      1 C          62.7115   90.2707   11.2632 C.2     1  UNL1        0.2525
      2 O          61.6877   90.9063   10.3699 O.2     1  UNL1       -0.2698
      3 N          62.6657   88.7944   11.5247 N.am    1  UNL1       -0.2660
      4 C          63.6166   88.0226   12.3908 C.3     1  UNL1        0.1236
      5 C          63.1995   86.5819   12.3674 C.ar    1  UNL1        0.0338
      6 C          63.5295   85.2145   12.8882 C.ar    1  UNL1        0.0990
      7 N          62.5248   84.2507   12.3296 N.ar    1  UNL1       -0.2287
      8 N          61.5740   85.0227   11.4634 N.ar    1  UNL1       -0.1680
      9 C          61.9910   86.4634   11.4868 C.ar    1  UNL1        0.0981
     10 C          61.6611   87.8308   10.9660 C.3     1  UNL1        0.1414
     11 C          63.9069   91.1672   13.3887 C.ar    1  UNL1        0.1427
     12 C          64.9764   92.0080   14.0204 C.ar    1  UNL1        0.0377
     13 C          65.9200   92.7932   13.1586 C.ar    1  UNL1        0.0134
     14 C          65.7942   92.7377   11.6649 C.ar    1  UNL1        0.0688
     15 C          64.7246   91.8968   11.0331 C.ar    1  UNL1        0.0178
     16 C          63.7810   91.1115   11.8950 C.ar    1  UNL1        0.0881
     17 C          66.7379   93.5230   10.8030 C.1     1  UNL1        0.1004
     18 N          67.6815   94.3082    9.9411 N.1     1  UNL1       -0.1908
     19 O          62.9632   90.3819   14.2506 O.3     1  UNL1       -0.4790
     20 C          63.5179   90.7331   16.7644 C.3     1  UNL1        0.0472
     21 C          63.4292   89.8341   15.5670 C.3     1  UNL1        0.1661
     22 C          63.8063   88.3872   15.6858 C.3     1  UNL1        0.0472
     23 C          62.4791   82.7745   12.5911 C.ar    1  UNL1        0.0828
     24 C          62.8918   81.8098   11.5192 C.ar    1  UNL1        0.0191
     25 C          62.8460   80.3334   11.7806 C.ar    1  UNL1        0.0015
     26 C          62.3875   79.8218   13.1140 C.ar    1  UNL1        0.0001
     27 C          61.9747   80.7866   14.1860 C.ar    1  UNL1        0.0015
     28 C          62.0205   82.2628   13.9245 C.ar    1  UNL1        0.0191
@<TRIPOS>BOND
     1    20    21    1
     2    21    22    1
     3    21    19    1
     4    19    11    1
     5    11    12   ar
     6    12    13   ar
     7    13    14   ar
     8    14    17    1
     9    17    18    3
    10    14    15   ar
    11    15    16   ar
    12    16     1    1
    13     1     2    2
    14     1     3   am
    15     3     4    1
    16     4     5    1
    17     5     6   ar
    18     6     7   ar
    19     7    23    1
    20    23    24   ar
    21    24    25   ar
    22    25    26   ar
    23    26    27   ar
    24    27    28   ar
    25     7     8   ar
    26     8     9   ar
    27     9    10    1
    28    16    11   ar
    29    10     3    1
    30     9     5   ar
    31    28    23   ar
@<TRIPOS>MOLECULE
*****
 28 31 0 0 0
SMALL
GASTEIGER

@<TRIPOS>ATOM
      1 C          63.8072   88.6643   15.3916 C.2     1  UNL1        0.2525
      2 O          63.4885   88.8845   16.8406 O.2     1  UNL1       -0.2698
      3 N          63.6488   87.3004   14.7877 N.am    1  UNL1       -0.2660
      4 C          63.9274   86.9300   13.3611 C.3     1  UNL1        0.1236
      5 C          63.6347   85.4681   13.1961 C.ar    1  UNL1        0.0338
      6 C          63.6260   84.3357   12.2125 C.ar    1  UNL1        0.0990
      7 N          63.1610   83.1027   12.9291 N.ar    1  UNL1       -0.2287
      8 N          62.8823   83.4731   14.3558 N.ar    1  UNL1       -0.1680
      9 C          63.1751   84.9350   14.5207 C.ar    1  UNL1        0.0981
     10 C          63.1838   86.0674   15.5044 C.3     1  UNL1        0.1414
     11 C          63.4241   90.3281   13.4332 C.ar    1  UNL1        0.1427
     12 C          63.9014   91.4717   12.5881 C.ar    1  UNL1        0.0377
     13 C          65.2391   92.0952   12.8561 C.ar    1  UNL1        0.0134
     14 C          66.0996   91.5750   13.9692 C.ar    1  UNL1        0.0688
     15 C          65.6222   90.4313   14.8144 C.ar    1  UNL1        0.0178
     16 C          64.2845   89.8079   14.5464 C.ar    1  UNL1        0.0881
     17 C          67.4373   92.1985   14.2372 C.1     1  UNL1        0.1004
     18 N          68.7750   92.8220   14.5051 N.1     1  UNL1       -0.1908
     19 O          62.0864   89.7046   13.1652 O.3     1  UNL1       -0.4790
     20 C          60.2911   90.3082   11.3868 C.3     1  UNL1        0.0472
     21 C          61.5682   89.6158   11.7604 C.3     1  UNL1        0.1661
     22 C          62.3272   88.8345   10.7292 C.3     1  UNL1        0.0472
     23 C          63.0025   81.7389   12.3253 C.ar    1  UNL1        0.0828
     24 C          62.6429   80.5708   13.1949 C.ar    1  UNL1        0.0191
     25 C          62.4844   79.2068   12.5911 C.ar    1  UNL1        0.0015
     26 C          62.6856   79.0110   11.1176 C.ar    1  UNL1        0.0001
     27 C          63.0453   80.1792   10.2479 C.ar    1  UNL1        0.0015
     28 C          63.2037   81.5430   10.8518 C.ar    1  UNL1        0.0191
@<TRIPOS>BOND
     1    20    21    1
     2    21    22    1
     3    21    19    1
     4    19    11    1
     5    11    12   ar
     6    12    13   ar
     7    13    14   ar
     8    14    17    1
     9    17    18    3
    10    14    15   ar
    11    15    16   ar
    12    16     1    1
    13     1     2    2
    14     1     3   am
    15     3     4    1
    16     4     5    1
    17     5     6   ar
    18     6     7   ar
    19     7    23    1
    20    23    24   ar
    21    24    25   ar
    22    25    26   ar
    23    26    27   ar
    24    27    28   ar
    25     7     8   ar
    26     8     9   ar
    27     9    10    1
    28    16    11   ar
    29    10     3    1
    30     9     5   ar
    31    28    23   ar
@<TRIPOS>MOLECULE
*****
 28 31 0 0 0
SMALL
GASTEIGER

@<TRIPOS>ATOM
      1 C          60.1756   88.7423   11.5110 C.2     1  UNL1        0.2525
      2 O          58.9734   88.5411   12.3852 O.2     1  UNL1       -0.2698
      3 N          61.4141   89.3751   12.0729 N.am    1  UNL1       -0.2660
      4 C          62.6866   89.6395   11.3241 C.3     1  UNL1        0.1236
      5 C          63.6564   90.2824   12.2708 C.ar    1  UNL1        0.0338
      6 C          65.0422   90.8432   12.3930 C.ar    1  UNL1        0.0990
      7 N          65.2256   91.3228   13.8024 N.ar    1  UNL1       -0.2287
      8 N          63.9530   91.0584   14.5513 N.ar    1  UNL1       -0.1680
      9 C          62.9832   90.4154   13.6046 C.ar    1  UNL1        0.0981
     10 C          61.5974   89.8547   13.4824 C.3     1  UNL1        0.1414
     11 C          60.5022   86.9029    9.7054 C.ar    1  UNL1        0.1427
     12 C          60.4659   86.4714    8.2693 C.ar    1  UNL1        0.0377
     13 C          60.0668   87.4476    7.2026 C.ar    1  UNL1        0.0134
     14 C          59.7039   88.8554    7.5721 C.ar    1  UNL1        0.0688
     15 C          59.7402   89.2869    9.0083 C.ar    1  UNL1        0.0178
     16 C          60.1393   88.3107   10.0749 C.ar    1  UNL1        0.0881
     17 C          59.3047   89.8316    6.5055 C.1     1  UNL1        0.1004
     18 N          58.9056   90.8078    5.4388 N.1     1  UNL1       -0.1908
     19 O          60.9013   85.9267   10.7720 O.3     1  UNL1       -0.4790
     20 C          63.0770   85.9767   12.1911 C.3     1  UNL1        0.0472
     21 C          62.3447   85.5593   10.9504 C.3     1  UNL1        0.1661
     22 C          63.0555   84.7746    9.8880 C.3     1  UNL1        0.0472
     23 C          66.4640   91.9556   14.3643 C.ar    1  UNL1        0.0828
     24 C          66.3893   92.7540   15.6320 C.ar    1  UNL1        0.0191
     25 C          67.6277   93.3869   16.1940 C.ar    1  UNL1        0.0015
     26 C          68.9409   93.2213   15.4883 C.ar    1  UNL1        0.0001
     27 C          69.0157   92.4228   14.2206 C.ar    1  UNL1        0.0015
     28 C          67.7773   91.7900   13.6586 C.ar    1  UNL1        0.0191
@<TRIPOS>BOND
     1    20    21    1
     2    21    22    1
     3    21    19    1
     4    19    11    1
     5    11    12   ar
     6    12    13   ar
     7    13    14   ar
     8    14    17    1
     9    17    18    3
    10    14    15   ar
    11    15    16   ar
    12    16     1    1
    13     1     2    2
    14     1     3   am
    15     3     4    1
    16     4     5    1
    17     5     6   ar
    18     6     7   ar
    19     7    23    1
    20    23    24   ar
    21    24    25   ar
    22    25    26   ar
    23    26    27   ar
    24    27    28   ar
    25     7     8   ar
    26     8     9   ar
    27     9    10    1
    28    16    11   ar
    29    10     3    1
    30     9     5   ar
    31    28    23   ar
@<TRIPOS>MOLECULE
*****
 28 31 0 0 0
SMALL
GASTEIGER

@<TRIPOS>ATOM
      1 C          64.1214   90.6357   13.1869 C.2     1  UNL1        0.2525
      2 O          63.5018   91.5159   12.1422 O.2     1  UNL1       -0.2698
      3 N          63.8576   89.1591   13.1762 N.am    1  UNL1       -0.2660
      4 C          64.4046   88.1587   14.1508 C.3     1  UNL1        0.1236
      5 C          63.8856   86.8050   13.7659 C.ar    1  UNL1        0.0338
      6 C          63.9028   85.3501   14.1303 C.ar    1  UNL1        0.0990
      7 N          63.0458   84.6146   13.1431 N.ar    1  UNL1       -0.2287
      8 N          62.4988   85.6152   12.1684 N.ar    1  UNL1       -0.1680
      9 C          63.0178   86.9688   12.5533 C.ar    1  UNL1        0.0981
     10 C          63.0005   88.4238   12.1889 C.3     1  UNL1        0.1414
     11 C          64.4479   91.5394   15.6008 C.ar    1  UNL1        0.1427
     12 C          65.3313   92.1359   16.6562 C.ar    1  UNL1        0.0377
     13 C          66.7716   92.4250   16.3531 C.ar    1  UNL1        0.0134
     14 C          67.3286   92.1177   14.9946 C.ar    1  UNL1        0.0688
     15 C          66.4451   91.5213   13.9393 C.ar    1  UNL1        0.0178
     16 C          65.0048   91.2321   14.2423 C.ar    1  UNL1        0.0881
     17 C          68.7689   92.4069   14.6916 C.1     1  UNL1        0.1004
     18 N          70.2092   92.6960   14.3886 N.1     1  UNL1       -0.1908
     19 O          63.0076   91.2503   15.9039 O.3     1  UNL1       -0.4790
     20 C          63.3944   89.0642   17.2534 C.3     1  UNL1        0.0472
     21 C          62.5835   89.8599   16.2740 C.3     1  UNL1        0.1661
     22 C          61.3485   89.2654   15.6647 C.3     1  UNL1        0.0472
     23 C          62.7820   83.1381   13.1323 C.ar    1  UNL1        0.0828
     24 C          63.2321   82.3043   11.9695 C.ar    1  UNL1        0.0191
     25 C          62.9683   80.8276   11.9587 C.ar    1  UNL1        0.0015
     26 C          62.2544   80.1849   13.1108 C.ar    1  UNL1        0.0001
     27 C          61.8043   81.0188   14.2736 C.ar    1  UNL1        0.0015
     28 C          62.0680   82.4953   14.2844 C.ar    1  UNL1        0.0191
@<TRIPOS>BOND
     1    20    21    1
     2    21    22    1
     3    21    19    1
     4    19    11    1
     5    11    12   ar
     6    12    13   ar
     7    13    14   ar
     8    14    17    1
     9    17    18    3
    10    14    15   ar
    11    15    16   ar
    12    16     1    1
    13     1     2    2
    14     1     3   am
    15     3     4    1
    16     4     5    1
    17     5     6   ar
    18     6     7   ar
    19     7    23    1
    20    23    24   ar
    21    24    25   ar
    22    25    26   ar
    23    26    27   ar
    24    27    28   ar
    25     7     8   ar
    26     8     9   ar
    27     9    10    1
    28    16    11   ar
    29    10     3    1
    30     9     5   ar
    31    28    23   ar
@<TRIPOS>MOLECULE
*****
 28 31 0 0 0
SMALL
GASTEIGER

@<TRIPOS>ATOM
      1 C          62.4000   85.5421   11.4781 C.2     1  UNL1        0.2525
      2 O          62.2894   84.0520   11.3464 O.2     1  UNL1       -0.2698
      3 N          61.7540   86.4350   10.4606 N.am    1  UNL1       -0.2660
      4 C          61.7793   87.9348   10.4609 C.3     1  UNL1        0.1236
      5 C          61.0102   88.4116    9.2646 C.ar    1  UNL1        0.0338
      6 C          60.5505   89.6332    8.5254 C.ar    1  UNL1        0.0990
      7 N          59.7658   89.1831    7.3289 N.ar    1  UNL1       -0.2287
      8 N          59.7405   87.6832    7.3286 N.ar    1  UNL1       -0.1680
      9 C          60.5096   87.2065    8.5249 C.ar    1  UNL1        0.0981
     10 C          60.9692   85.9849    9.2641 C.3     1  UNL1        0.1414
     11 C          63.8061   85.2463   13.6428 C.ar    1  UNL1        0.1427
     12 C          64.5627   85.8436   14.7921 C.ar    1  UNL1        0.0377
     13 C          64.6697   87.3337   14.9261 C.ar    1  UNL1        0.0134
     14 C          64.0203   88.2267   13.9109 C.ar    1  UNL1        0.0688
     15 C          63.2637   87.6294   12.7615 C.ar    1  UNL1        0.0178
     16 C          63.1566   86.1393   12.6275 C.ar    1  UNL1        0.0881
     17 C          64.1274   89.7168   14.0449 C.1     1  UNL1        0.1004
     18 N          64.2344   91.2070   14.1790 N.1     1  UNL1       -0.1908
     19 O          63.6990   83.7562   13.5088 O.3     1  UNL1       -0.4790
     20 C          62.4180   81.5561   14.0271 C.3     1  UNL1        0.0472
     21 C          62.6937   83.0000   14.3258 C.3     1  UNL1        0.1661
     22 C          61.9643   83.6877   15.4415 C.3     1  UNL1        0.0472
     23 C          59.1198   90.0759    6.3114 C.ar    1  UNL1        0.0828
     24 C          59.9660   90.9621    5.4462 C.ar    1  UNL1        0.0191
     25 C          59.3200   91.8550    4.4286 C.ar    1  UNL1        0.0015
     26 C          57.8278   91.8618    4.2763 C.ar    1  UNL1        0.0001
     27 C          56.9815   90.9756    5.1416 C.ar    1  UNL1        0.0015
     28 C          57.6275   90.0827    6.1591 C.ar    1  UNL1        0.0191
@<TRIPOS>BOND
     1    20    21    1
     2    21    22    1
     3    21    19    1
     4    19    11    1
     5    11    12   ar
     6    12    13   ar
     7    13    14   ar
     8    14    17    1
     9    17    18    3
    10    14    15   ar
    11    15    16   ar
    12    16     1    1
    13     1     2    2
    14     1     3   am
    15     3     4    1
    16     4     5    1
    17     5     6   ar
    18     6     7   ar
    19     7    23    1
    20    23    24   ar
    21    24    25   ar
    22    25    26   ar
    23    26    27   ar
    24    27    28   ar
    25     7     8   ar
    26     8     9   ar
    27     9    10    1
    28    16    11   ar
    29    10     3    1
    30     9     5   ar
    31    28    23   ar
@<TRIPOS>MOLECULE
*****
 28 31 0 0 0
SMALL
GASTEIGER

@<TRIPOS>ATOM
      1 C          62.9386   85.9009   12.5761 C.2     1  UNL1        0.2525
      2 O          63.8947   86.6162   13.4840 O.2     1  UNL1       -0.2698
      3 N          62.2603   86.6456   11.4646 N.am    1  UNL1       -0.2660
      4 C          61.2853   86.0673   10.4823 C.3     1  UNL1        0.1236
      5 C          60.8603   87.1637    9.5510 C.ar    1  UNL1        0.0338
      6 C          59.9951   87.4839    8.3682 C.ar    1  UNL1        0.0990
      7 N          60.1727   88.9376    8.0439 N.ar    1  UNL1       -0.2287
      8 N          61.1478   89.5159    9.0263 N.ar    1  UNL1       -0.1680
      9 C          61.5727   88.4195    9.9576 C.ar    1  UNL1        0.0981
     10 C          62.4379   88.0993   11.1404 C.3     1  UNL1        0.1414
     11 C          62.1074   83.9580   14.0875 C.ar    1  UNL1        0.1427
     12 C          61.8296   82.4980   14.2909 C.ar    1  UNL1        0.0377
     13 C          62.1053   81.5211   13.1866 C.ar    1  UNL1        0.0134
     14 C          62.6588   82.0040   11.8788 C.ar    1  UNL1        0.0688
     15 C          62.9365   83.4640   11.6753 C.ar    1  UNL1        0.0178
     16 C          62.6608   84.4410   12.7796 C.ar    1  UNL1        0.0881
     17 C          62.9344   81.0270   10.7745 C.1     1  UNL1        0.1004
     18 N          63.2101   80.0501    9.6701 N.1     1  UNL1       -0.1908
     19 O          61.8317   84.9349   15.1918 O.3     1  UNL1       -0.4790
     20 C          64.2828   84.6979   16.0199 C.3     1  UNL1        0.0472
     21 C          62.9021   85.2583   16.1917 C.3     1  UNL1        0.1661
     22 C          62.5916   86.1420   17.3632 C.3     1  UNL1        0.0472
     23 C          59.4944   89.6823    6.9325 C.ar    1  UNL1        0.0828
     24 C          60.3061   90.5039    5.9754 C.ar    1  UNL1        0.0191
     25 C          59.6279   91.2486    4.8639 C.ar    1  UNL1        0.0015
     26 C          58.1378   91.1717    4.7096 C.ar    1  UNL1        0.0001
     27 C          57.3260   90.3501    5.6668 C.ar    1  UNL1        0.0015
     28 C          58.0043   89.6054    6.7781 C.ar    1  UNL1        0.0191
@<TRIPOS>BOND
     1    20    21    1
     2    21    22    1
     3    21    19    1
     4    19    11    1
     5    11    12   ar
     6    12    13   ar
     7    13    14   ar
     8    14    17    1
     9    17    18    3
    10    14    15   ar
    11    15    16   ar
    12    16     1    1
    13     1     2    2
    14     1     3   am
    15     3     4    1
    16     4     5    1
    17     5     6   ar
    18     6     7   ar
    19     7    23    1
    20    23    24   ar
    21    24    25   ar
    22    25    26   ar
    23    26    27   ar
    24    27    28   ar
    25     7     8   ar
    26     8     9   ar
    27     9    10    1
    28    16    11   ar
    29    10     3    1
    30     9     5   ar
    31    28    23   ar
@<TRIPOS>MOLECULE
*****
 28 31 0 0 0
SMALL
GASTEIGER

@<TRIPOS>ATOM
      1 C          61.8994   86.3057   11.6640 C.2     1  UNL1        0.2525
      2 O          61.7239   85.0222   12.4202 O.2     1  UNL1       -0.2698
      3 N          62.7633   87.3954   12.2264 N.am    1  UNL1       -0.2660
      4 C          63.0315   88.7260   11.5879 C.3     1  UNL1        0.1236
      5 C          63.9446   89.4987   12.4930 C.ar    1  UNL1        0.0338
      6 C          64.6746   90.7987   12.6577 C.ar    1  UNL1        0.0990
      7 N          65.4219   90.7492   13.9574 N.ar    1  UNL1       -0.2287
      8 N          65.1537   89.4185   14.5959 N.ar    1  UNL1       -0.1680
      9 C          64.2406   88.6458   13.6909 C.ar    1  UNL1        0.0981
     10 C          63.5105   87.3459   13.5261 C.3     1  UNL1        0.1414
     11 C          60.1435   87.5435   10.2029 C.ar    1  UNL1        0.1427
     12 C          59.4552   87.7372    8.8843 C.ar    1  UNL1        0.0377
     13 C          59.8345   86.8870    7.7082 C.ar    1  UNL1        0.0134
     14 C          60.9022   85.8430    7.8506 C.ar    1  UNL1        0.0688
     15 C          61.5904   85.6493    9.1693 C.ar    1  UNL1        0.0178
     16 C          61.2111   86.4995   10.3454 C.ar    1  UNL1        0.0881
     17 C          61.2815   84.9928    6.6745 C.1     1  UNL1        0.1004
     18 N          61.6608   84.1426    5.4984 N.1     1  UNL1       -0.1908
     19 O          59.7642   88.3937   11.3790 O.3     1  UNL1       -0.4790
     20 C          58.7191   90.7085   11.9263 C.3     1  UNL1        0.0472
     21 C          59.7850   89.8889   11.2614 C.3     1  UNL1        0.1661
     22 C          60.8717   90.5645   10.4788 C.3     1  UNL1        0.0472
     23 C          66.2857   91.8388   14.5198 C.ar    1  UNL1        0.0828
     24 C          67.2427   91.5371   15.6348 C.ar    1  UNL1        0.0191
     25 C          68.1066   92.6268   16.1973 C.ar    1  UNL1        0.0015
     26 C          68.0135   94.0182   15.6448 C.ar    1  UNL1        0.0001
     27 C          67.0564   94.3199   14.5297 C.ar    1  UNL1        0.0015
     28 C          66.1926   93.2303   13.9673 C.ar    1  UNL1        0.0191
@<TRIPOS>BOND
     1    20    21    1
     2    21    22    1
     3    21    19    1
     4    19    11    1
     5    11    12   ar
     6    12    13   ar
     7    13    14   ar
     8    14    17    1
     9    17    18    3
    10    14    15   ar
    11    15    16   ar
    12    16     1    1
    13     1     2    2
    14     1     3   am
    15     3     4    1
    16     4     5    1
    17     5     6   ar
    18     6     7   ar
    19     7    23    1
    20    23    24   ar
    21    24    25   ar
    22    25    26   ar
    23    26    27   ar
    24    27    28   ar
    25     7     8   ar
    26     8     9   ar
    27     9    10    1
    28    16    11   ar
    29    10     3    1
    30     9     5   ar
    31    28    23   ar
