@<TRIPOS>MOLECULE
*****
 32 36 0 0 0
SMALL
GASTEIGER

@<TRIPOS>ATOM
      1 C          62.7845   86.7989   11.9255 C.2     1  UNL1        0.2506
      2 O          63.5901   87.4147   13.0308 O.2     1  UNL1       -0.2699
      3 N          61.8104   87.6364   11.1512 N.am    1  UNL1       -0.2723
      4 C          61.0047   87.0206   10.0458 C.3     1  UNL1        0.1257
      5 C          60.0307   87.8582    9.2714 C.3     1  UNL1        0.1637
      6 O          59.8623   89.3115    9.6023 O.3     1  UNL1       -0.3502
      7 C          60.6679   89.9273   10.7076 C.3     1  UNL1        0.1622
      8 C          61.6420   89.0897   11.4821 C.3     1  UNL1        0.1096
      9 C          63.4581   80.9856   10.6019 C.3     1  UNL1        0.0311
     10 C          63.2897   82.4389   10.9328 C.ar    1  UNL1       -0.0203
     11 C          63.1548   83.4482    9.8314 C.ar    1  UNL1       -0.0040
     12 C          62.9864   84.9015   10.1623 C.ar    1  UNL1        0.0058
     13 C          62.9529   85.3456   11.5946 C.ar    1  UNL1        0.0729
     14 C          63.0878   84.3363   12.6960 C.ar    1  UNL1        0.1069
     15 C          63.2562   82.8830   12.3651 C.ar    1  UNL1        0.0168
     16 N          63.0543   84.7804   14.1285 N.ar    1  UNL1       -0.1477
     17 N          61.8505   84.7814   15.0233 N.ar    1  UNL1       -0.1447
     18 C          62.2709   85.3030   16.3654 C.ar    1  UNL1        0.1446
     19 C          63.7346   85.6244   16.3000 C.ar    1  UNL1        0.1446
     20 N          64.2188   85.3014   14.9175 N.ar    1  UNL1       -0.1447
     21 C          62.4477   89.7055   12.5874 C.3     1  UNL1        0.0488
     22 C          63.5475   90.6730   12.2645 C.ar    1  UNL1       -0.0189
     23 C          63.6359   91.2783   10.8949 C.ar    1  UNL1       -0.0041
     24 C          64.7358   92.2458   10.5720 C.ar    1  UNL1        0.0013
     25 C          65.7472   92.6081   11.6187 C.ar    1  UNL1        0.0209
     26 C          65.6588   92.0028   12.9883 C.ar    1  UNL1        0.1026
     27 C          64.5590   91.0353   13.3112 C.ar    1  UNL1        0.0167
     28 N          66.6703   92.3651   14.0352 N.ar    1  UNL1       -0.1478
     29 N          68.1607   92.3365   13.8684 N.ar    1  UNL1       -0.1447
     30 C          68.7804   92.7733   15.1626 C.ar    1  UNL1        0.1446
     31 C          67.6730   93.0718   16.1294 C.ar    1  UNL1        0.1446
     32 N          66.3689   92.8195   15.4325 N.ar    1  UNL1       -0.1447
@<TRIPOS>BOND
     1     9    10    1
     2    10    11   ar
     3    11    12   ar
     4    12    13   ar
     5    13     1    1
     6     1     2    2
     7     1     3   am
     8     3     4    1
     9     4     5    1
    10     5     6    1
    11     6     7    1
    12     7     8    1
    13     8    21    1
    14    21    22    1
    15    22    23   ar
    16    23    24   ar
    17    24    25   ar
    18    25    26   ar
    19    26    28    1
    20    28    29   ar
    21    29    30   ar
    22    30    31   ar
    23    31    32   ar
    24    26    27   ar
    25    13    14   ar
    26    14    16    1
    27    16    17   ar
    28    17    18   ar
    29    18    19   ar
    30    19    20   ar
    31    14    15   ar
    32    15    10   ar
    33     8     3    1
    34    27    22   ar
    35    20    16   ar
    36    32    28   ar
@<TRIPOS>MOLECULE
*****
 32 36 0 0 0
SMALL
GASTEIGER

@<TRIPOS>ATOM
      1 C          62.8891   86.0456   12.3612 C.2     1  UNL1        0.2506
      2 O          63.5327   86.8037   13.4842 O.2     1  UNL1       -0.2699
      3 N          62.2424   86.7875   11.2293 N.am    1  UNL1       -0.2723
      4 C          61.5988   86.0294   10.1062 C.3     1  UNL1        0.1257
      5 C          60.9521   86.7713    8.9743 C.3     1  UNL1        0.1637
      6 O          60.9491   88.2713    8.9652 O.3     1  UNL1       -0.3502
      7 C          61.5926   89.0294   10.0882 C.3     1  UNL1        0.1622
      8 C          62.2393   88.2875   11.2202 C.3     1  UNL1        0.1096
      9 C          62.9014   80.0458   12.3973 C.3     1  UNL1        0.0311
     10 C          62.8983   81.5457   12.3883 C.ar    1  UNL1       -0.0203
     11 C          62.9429   82.2880   11.0856 C.ar    1  UNL1       -0.0040
     12 C          62.9399   83.7880   11.0766 C.ar    1  UNL1        0.0058
     13 C          62.8922   84.5457   12.3702 C.ar    1  UNL1        0.0729
     14 C          62.8476   83.8034   13.6729 C.ar    1  UNL1        0.1069
     15 C          62.8507   82.3034   13.6819 C.ar    1  UNL1        0.0168
     16 N          62.7999   84.5611   14.9666 N.ar    1  UNL1       -0.1477
     17 N          61.5632   85.0751   15.6423 N.ar    1  UNL1       -0.1447
     18 C          61.9795   85.7694   16.9051 C.ar    1  UNL1        0.1446
     19 C          63.4734   85.6845   17.0098 C.ar    1  UNL1        0.1446
     20 N          63.9804   84.9377   15.8119 N.ar    1  UNL1       -0.1447
     21 C          62.8829   89.0456   12.3432 C.3     1  UNL1        0.0488
     22 C          63.7172   90.2570   12.0491 C.ar    1  UNL1       -0.0189
     23 C          63.5445   90.9896   10.7517 C.ar    1  UNL1       -0.0041
     24 C          64.3787   92.2010   10.4576 C.ar    1  UNL1        0.0013
     25 C          65.3857   92.6798   11.4609 C.ar    1  UNL1        0.0209
     26 C          65.5585   91.9471   12.7583 C.ar    1  UNL1        0.1026
     27 C          64.7242   90.7357   13.0524 C.ar    1  UNL1        0.0167
     28 N          66.5655   92.4259   13.7617 N.ar    1  UNL1       -0.1478
     29 N          66.2677   93.2142   15.0026 N.ar    1  UNL1       -0.1447
     30 C          67.5653   93.4759   15.7081 C.ar    1  UNL1        0.1446
     31 C          68.6651   92.8492   14.9033 C.ar    1  UNL1        0.1446
     32 N          68.0472   92.2002   13.7004 N.ar    1  UNL1       -0.1447
@<TRIPOS>BOND
     1     9    10    1
     2    10    11   ar
     3    11    12   ar
     4    12    13   ar
     5    13     1    1
     6     1     2    2
     7     1     3   am
     8     3     4    1
     9     4     5    1
    10     5     6    1
    11     6     7    1
    12     7     8    1
    13     8    21    1
    14    21    22    1
    15    22    23   ar
    16    23    24   ar
    17    24    25   ar
    18    25    26   ar
    19    26    28    1
    20    28    29   ar
    21    29    30   ar
    22    30    31   ar
    23    31    32   ar
    24    26    27   ar
    25    13    14   ar
    26    14    16    1
    27    16    17   ar
    28    17    18   ar
    29    18    19   ar
    30    19    20   ar
    31    14    15   ar
    32    15    10   ar
    33     8     3    1
    34    27    22   ar
    35    20    16   ar
    36    32    28   ar
@<TRIPOS>MOLECULE
*****
 32 36 0 0 0
SMALL
GASTEIGER

@<TRIPOS>ATOM
      1 C          63.1270   87.1098   12.5874 C.2     1  UNL1        0.2506
      2 O          63.7268   87.5366   13.8944 O.2     1  UNL1       -0.2699
      3 N          62.5272   88.1322   11.6682 N.am    1  UNL1       -0.2723
      4 C          61.9273   87.7055   10.3612 C.3     1  UNL1        0.1257
      5 C          61.3275   88.7278    9.4420 C.3     1  UNL1        0.1637
      6 O          61.3275   90.1768    9.8296 O.3     1  UNL1       -0.3502
      7 C          61.9273   90.6035   11.1365 C.3     1  UNL1        0.1622
      8 C          62.5272   89.5812   12.0559 C.3     1  UNL1        0.1096
      9 C          63.1269   81.3137   11.0368 C.3     1  UNL1        0.0311
     10 C          63.1269   82.7627   11.4244 C.ar    1  UNL1       -0.0203
     11 C          63.1698   83.8228   10.3641 C.ar    1  UNL1       -0.0040
     12 C          63.1698   85.2718   10.7517 C.ar    1  UNL1        0.0058
     13 C          63.1270   85.6608   12.1998 C.ar    1  UNL1        0.0729
     14 C          63.0841   84.6007   13.2601 C.ar    1  UNL1        0.1069
     15 C          63.0841   83.1517   12.8724 C.ar    1  UNL1        0.0168
     16 N          63.0412   84.9897   14.7082 N.ar    1  UNL1       -0.1477
     17 N          61.8126   85.0615   15.5659 N.ar    1  UNL1       -0.1447
     18 C          62.2314   85.4913   16.9406 C.ar    1  UNL1        0.1446
     19 C          63.7189   85.6851   16.9326 C.ar    1  UNL1        0.1446
     20 N          64.2193   85.3751   15.5529 N.ar    1  UNL1       -0.1447
     21 C          63.1270   90.0079   13.3628 C.3     1  UNL1        0.0488
     22 C          64.4164   90.7741   13.3816 C.ar    1  UNL1       -0.0189
     23 C          65.3616   90.6234   14.5365 C.ar    1  UNL1       -0.0041
     24 C          66.6510   91.3896   14.5554 C.ar    1  UNL1        0.0013
     25 C          66.9952   92.3066   13.4193 C.ar    1  UNL1        0.0209
     26 C          66.0500   92.4574   12.2645 C.ar    1  UNL1        0.1026
     27 C          64.7606   91.6911   12.2456 C.ar    1  UNL1        0.0167
     28 N          66.3941   93.3744   11.1283 N.ar    1  UNL1       -0.1478
     29 N          65.6516   94.6199   10.7446 N.ar    1  UNL1       -0.1447
     30 C          66.3398   95.2222    9.5556 C.ar    1  UNL1        0.1446
     31 C          67.5078   94.3488    9.2045 C.ar    1  UNL1        0.1446
     32 N          67.5413   93.2069   10.1765 N.ar    1  UNL1       -0.1447
@<TRIPOS>BOND
     1     9    10    1
     2    10    11   ar
     3    11    12   ar
     4    12    13   ar
     5    13     1    1
     6     1     2    2
     7     1     3   am
     8     3     4    1
     9     4     5    1
    10     5     6    1
    11     6     7    1
    12     7     8    1
    13     8    21    1
    14    21    22    1
    15    22    23   ar
    16    23    24   ar
    17    24    25   ar
    18    25    26   ar
    19    26    28    1
    20    28    29   ar
    21    29    30   ar
    22    30    31   ar
    23    31    32   ar
    24    26    27   ar
    25    13    14   ar
    26    14    16    1
    27    16    17   ar
    28    17    18   ar
    29    18    19   ar
    30    19    20   ar
    31    14    15   ar
    32    15    10   ar
    33     8     3    1
    34    27    22   ar
    35    20    16   ar
    36    32    28   ar
@<TRIPOS>MOLECULE
*****
 32 36 0 0 0
SMALL
GASTEIGER

@<TRIPOS>ATOM
      1 C          63.5346   87.5325   13.3476 C.2     1  UNL1        0.2506
      2 O          63.6926   88.5495   12.2564 O.2     1  UNL1       -0.2699
      3 N          63.4191   87.9765   14.7757 N.am    1  UNL1       -0.2723
      4 C          63.2611   86.9595   15.8669 C.3     1  UNL1        0.1257
      5 C          63.1456   87.4036   17.2950 C.3     1  UNL1        0.1637
      6 O          63.1882   88.8646   17.6319 O.3     1  UNL1       -0.3502
      7 C          63.3462   89.8816   16.5407 C.3     1  UNL1        0.1622
      8 C          63.4617   89.4376   15.1126 C.3     1  UNL1        0.1096
      9 C          63.3643   81.6883   12.0000 C.3     1  UNL1        0.0311
     10 C          63.4069   83.1493   12.3369 C.ar    1  UNL1       -0.0203
     11 C          64.2639   83.6333   13.4687 C.ar    1  UNL1       -0.0040
     12 C          64.3065   85.0944   13.8056 C.ar    1  UNL1        0.0058
     13 C          63.4920   86.0714   13.0107 C.ar    1  UNL1        0.0729
     14 C          62.6350   85.5874   11.8788 C.ar    1  UNL1        0.1069
     15 C          62.5924   84.1264   11.5419 C.ar    1  UNL1        0.0168
     16 N          61.8204   86.5645   11.0838 N.ar    1  UNL1       -0.1477
     17 N          62.0746   86.9742    9.6634 N.ar    1  UNL1       -0.1447
     18 C          61.0201   87.9662    9.2713 C.ar    1  UNL1        0.1446
     19 C          60.1141   88.1696   10.4494 C.ar    1  UNL1        0.1446
     20 N          60.6088   87.3033   11.5696 N.ar    1  UNL1       -0.1447
     21 C          63.6197   90.4546   14.0214 C.3     1  UNL1        0.0488
     22 C          64.9312   91.1587   13.8366 C.ar    1  UNL1       -0.0189
     23 C          66.0347   90.9628   14.8335 C.ar    1  UNL1       -0.0041
     24 C          67.3462   91.6669   14.6487 C.ar    1  UNL1        0.0013
     25 C          67.5543   92.5669   13.4670 C.ar    1  UNL1        0.0209
     26 C          66.4508   92.7629   12.4700 C.ar    1  UNL1        0.1026
     27 C          65.1393   92.0588   12.6548 C.ar    1  UNL1        0.0167
     28 N          66.6588   93.6630   11.2882 N.ar    1  UNL1       -0.1478
     29 N          67.6371   93.4418   10.1729 N.ar    1  UNL1       -0.1447
     30 C          67.5080   94.5844    9.2096 C.ar    1  UNL1        0.1446
     31 C          66.4498   95.5117    9.7297 C.ar    1  UNL1        0.1446
     32 N          65.9250   94.9422   11.0143 N.ar    1  UNL1       -0.1447
@<TRIPOS>BOND
     1     9    10    1
     2    10    11   ar
     3    11    12   ar
     4    12    13   ar
     5    13     1    1
     6     1     2    2
     7     1     3   am
     8     3     4    1
     9     4     5    1
    10     5     6    1
    11     6     7    1
    12     7     8    1
    13     8    21    1
    14    21    22    1
    15    22    23   ar
    16    23    24   ar
    17    24    25   ar
    18    25    26   ar
    19    26    28    1
    20    28    29   ar
    21    29    30   ar
    22    30    31   ar
    23    31    32   ar
    24    26    27   ar
    25    13    14   ar
    26    14    16    1
    27    16    17   ar
    28    17    18   ar
    29    18    19   ar
    30    19    20   ar
    31    14    15   ar
    32    15    10   ar
    33     8     3    1
    34    27    22   ar
    35    20    16   ar
    36    32    28   ar
@<TRIPOS>MOLECULE
*****
 32 36 0 0 0
SMALL
GASTEIGER

@<TRIPOS>ATOM
      1 C          62.7257   88.5549   11.6025 C.2     1  UNL1        0.2506
      2 O          62.7021   90.0544   11.5746 O.2     1  UNL1       -0.2699
      3 N          63.3592   87.8361   12.7565 N.am    1  UNL1       -0.2723
      4 C          63.3828   86.3365   12.7844 C.3     1  UNL1        0.1257
      5 C          64.0164   85.6177   13.9384 C.3     1  UNL1        0.1637
      6 O          64.6264   86.3984   15.0647 O.3     1  UNL1       -0.3502
      7 C          64.6028   87.8979   15.0368 C.3     1  UNL1        0.1622
      8 C          63.9692   88.6168   13.8827 C.3     1  UNL1        0.1096
      9 C          60.2858   85.4320    7.0976 C.3     1  UNL1        0.0311
     10 C          60.8957   86.2127    8.2238 C.ar    1  UNL1       -0.0203
     11 C          62.3389   86.0121    8.5801 C.ar    1  UNL1       -0.0040
     12 C          62.9489   86.7928    9.7064 C.ar    1  UNL1        0.0058
     13 C          62.1157   87.7742   10.4762 C.ar    1  UNL1        0.0729
     14 C          60.6725   87.9748   10.1199 C.ar    1  UNL1        0.1069
     15 C          60.0626   87.1940    8.9937 C.ar    1  UNL1        0.0168
     16 N          59.8393   88.9561   10.8898 N.ar    1  UNL1       -0.1477
     17 N          59.0843   88.6708   12.1542 N.ar    1  UNL1       -0.1447
     18 C          58.3932   89.9334   12.5763 C.ar    1  UNL1        0.1446
     19 C          58.7210   90.9990   11.5728 C.ar    1  UNL1        0.1446
     20 N          59.6147   90.3950   10.5305 N.ar    1  UNL1       -0.1447
     21 C          63.9456   90.1163   13.8549 C.3     1  UNL1        0.0488
     22 C          65.2313   90.8854   13.7801 C.ar    1  UNL1       -0.0189
     23 C          66.1781   90.8787   14.9434 C.ar    1  UNL1       -0.0041
     24 C          67.4637   91.6478   14.8686 C.ar    1  UNL1        0.0013
     25 C          67.8026   92.4235   13.6304 C.ar    1  UNL1        0.0209
     26 C          66.8558   92.4303   12.4670 C.ar    1  UNL1        0.1026
     27 C          65.5702   91.6612   12.5418 C.ar    1  UNL1        0.0167
     28 N          67.1947   93.2061   11.2286 N.ar    1  UNL1       -0.1478
     29 N          67.9238   92.6776   10.0290 N.ar    1  UNL1       -0.1447
     30 C          68.0436   93.7915    9.0316 C.ar    1  UNL1        0.1446
     31 C          67.3885   95.0084    9.6147 C.ar    1  UNL1        0.1446
     32 N          66.8639   94.6466   10.9726 N.ar    1  UNL1       -0.1447
@<TRIPOS>BOND
     1     9    10    1
     2    10    11   ar
     3    11    12   ar
     4    12    13   ar
     5    13     1    1
     6     1     2    2
     7     1     3   am
     8     3     4    1
     9     4     5    1
    10     5     6    1
    11     6     7    1
    12     7     8    1
    13     8    21    1
    14    21    22    1
    15    22    23   ar
    16    23    24   ar
    17    24    25   ar
    18    25    26   ar
    19    26    28    1
    20    28    29   ar
    21    29    30   ar
    22    30    31   ar
    23    31    32   ar
    24    26    27   ar
    25    13    14   ar
    26    14    16    1
    27    16    17   ar
    28    17    18   ar
    29    18    19   ar
    30    19    20   ar
    31    14    15   ar
    32    15    10   ar
    33     8     3    1
    34    27    22   ar
    35    20    16   ar
    36    32    28   ar
@<TRIPOS>MOLECULE
*****
 32 36 0 0 0
SMALL
GASTEIGER

@<TRIPOS>ATOM
      1 C          62.7370   89.0237   11.6285 C.2     1  UNL1        0.2506
      2 O          62.9313   87.8577   12.5519 O.2     1  UNL1       -0.2699
      3 N          61.6980   88.9601   10.5486 N.am    1  UNL1       -0.2723
      4 C          61.5036   90.1261    9.6251 C.3     1  UNL1        0.1257
      5 C          60.4646   90.0625    8.5452 C.3     1  UNL1        0.1637
      6 O          59.6198   88.8329    8.3886 O.3     1  UNL1       -0.3502
      7 C          59.8141   87.6669    9.3120 C.3     1  UNL1        0.1622
      8 C          60.8532   87.7305   10.3920 C.3     1  UNL1        0.1096
      9 C          66.1161   93.9420   12.2546 C.3     1  UNL1        0.0311
     10 C          65.2713   92.7125   12.0981 C.ar    1  UNL1       -0.0203
     11 C          64.7342   92.3383   10.7484 C.ar    1  UNL1       -0.0040
     12 C          63.8894   91.1087   10.5919 C.ar    1  UNL1        0.0058
     13 C          63.5818   90.2533   11.7850 C.ar    1  UNL1        0.0729
     14 C          64.1189   90.6274   13.1346 C.ar    1  UNL1        0.1069
     15 C          64.9636   91.8570   13.2911 C.ar    1  UNL1        0.0168
     16 N          63.8112   89.7720   14.3278 N.ar    1  UNL1       -0.1477
     17 N          62.7647   90.0501   15.3658 N.ar    1  UNL1       -0.1447
     18 C          62.8027   88.9383   16.3720 C.ar    1  UNL1        0.1446
     19 C          63.8728   87.9729   15.9558 C.ar    1  UNL1        0.1446
     20 N          64.4960   88.4882   14.6924 N.ar    1  UNL1       -0.1447
     21 C          61.0475   86.5645   11.3154 C.3     1  UNL1        0.0488
     22 C          61.9439   85.4309   10.9137 C.ar    1  UNL1       -0.0189
     23 C          62.6802   85.4834    9.6080 C.ar    1  UNL1       -0.0041
     24 C          63.5766   84.3498    9.2062 C.ar    1  UNL1        0.0013
     25 C          63.7366   83.1636   10.1102 C.ar    1  UNL1        0.0209
     26 C          63.0003   83.1110   11.4160 C.ar    1  UNL1        0.1026
     27 C          62.1039   84.2447   11.8177 C.ar    1  UNL1        0.0167
     28 N          63.1603   81.9248   12.3201 N.ar    1  UNL1       -0.1478
     29 N          62.5284   80.5781   12.1277 N.ar    1  UNL1       -0.1447
     30 C          62.9579   79.6980   13.2640 C.ar    1  UNL1        0.1446
     31 C          63.8552   80.5009   14.1586 C.ar    1  UNL1        0.1446
     32 N          63.9802   81.8771   13.5752 N.ar    1  UNL1       -0.1447
@<TRIPOS>BOND
     1     9    10    1
     2    10    11   ar
     3    11    12   ar
     4    12    13   ar
     5    13     1    1
     6     1     2    2
     7     1     3   am
     8     3     4    1
     9     4     5    1
    10     5     6    1
    11     6     7    1
    12     7     8    1
    13     8    21    1
    14    21    22    1
    15    22    23   ar
    16    23    24   ar
    17    24    25   ar
    18    25    26   ar
    19    26    28    1
    20    28    29   ar
    21    29    30   ar
    22    30    31   ar
    23    31    32   ar
    24    26    27   ar
    25    13    14   ar
    26    14    16    1
    27    16    17   ar
    28    17    18   ar
    29    18    19   ar
    30    19    20   ar
    31    14    15   ar
    32    15    10   ar
    33     8     3    1
    34    27    22   ar
    35    20    16   ar
    36    32    28   ar
@<TRIPOS>MOLECULE
*****
 32 36 0 0 0
SMALL
GASTEIGER

@<TRIPOS>ATOM
      1 C          63.4639   87.4589   13.1791 C.2     1  UNL1        0.2506
      2 O          63.4648   88.1107   11.8282 O.2     1  UNL1       -0.2699
      3 N          63.3761   88.3004   14.4177 N.am    1  UNL1       -0.2723
      4 C          63.3751   87.6486   15.7688 C.3     1  UNL1        0.1257
      5 C          63.2873   88.4901   17.0074 C.3     1  UNL1        0.1637
      6 O          63.2004   89.9833   16.8950 O.3     1  UNL1       -0.3502
      7 C          63.2013   90.6351   15.5440 C.3     1  UNL1        0.1622
      8 C          63.2892   89.7936   14.3053 C.3     1  UNL1        0.1096
      9 C          63.8115   81.4858   13.6286 C.3     1  UNL1        0.0311
     10 C          63.7246   82.9791   13.5162 C.ar    1  UNL1       -0.0203
     11 C          64.4081   83.8485   14.5295 C.ar    1  UNL1       -0.0040
     12 C          64.3212   85.3418   14.4172 C.ar    1  UNL1        0.0058
     13 C          63.5508   85.9656   13.2915 C.ar    1  UNL1        0.0729
     14 C          62.8672   85.0962   12.2782 C.ar    1  UNL1        0.1069
     15 C          62.9541   83.6030   12.3905 C.ar    1  UNL1        0.0168
     16 N          62.0967   85.7200   11.1524 N.ar    1  UNL1       -0.1477
     17 N          62.4151   85.5973    9.6917 N.ar    1  UNL1       -0.1447
     18 C          61.3878   86.3775    8.9263 C.ar    1  UNL1        0.1446
     19 C          60.4345   86.9824    9.9139 C.ar    1  UNL1        0.1446
     20 N          60.8727   86.5761   11.2897 N.ar    1  UNL1       -0.1447
     21 C          63.2901   90.4454   12.9544 C.3     1  UNL1        0.0488
     22 C          64.4141   91.3583   12.5628 C.ar    1  UNL1       -0.0189
     23 C          64.4719   91.9241   11.1749 C.ar    1  UNL1       -0.0041
     24 C          65.5959   92.8369   10.7833 C.ar    1  UNL1        0.0013
     25 C          66.6621   93.1840   11.7797 C.ar    1  UNL1        0.0209
     26 C          66.6042   92.6182   13.1676 C.ar    1  UNL1        0.1026
     27 C          65.4802   91.7053   13.5592 C.ar    1  UNL1        0.0167
     28 N          67.6704   92.9652   14.1641 N.ar    1  UNL1       -0.1478
     29 N          69.0847   92.4656   14.1522 N.ar    1  UNL1       -0.1447
     30 C          69.7978   93.0644   15.3281 C.ar    1  UNL1        0.1446
     31 C          68.8242   93.9341   16.0669 C.ar    1  UNL1        0.1446
     32 N          67.5094   93.8728   15.3475 N.ar    1  UNL1       -0.1447
@<TRIPOS>BOND
     1     9    10    1
     2    10    11   ar
     3    11    12   ar
     4    12    13   ar
     5    13     1    1
     6     1     2    2
     7     1     3   am
     8     3     4    1
     9     4     5    1
    10     5     6    1
    11     6     7    1
    12     7     8    1
    13     8    21    1
    14    21    22    1
    15    22    23   ar
    16    23    24   ar
    17    24    25   ar
    18    25    26   ar
    19    26    28    1
    20    28    29   ar
    21    29    30   ar
    22    30    31   ar
    23    31    32   ar
    24    26    27   ar
    25    13    14   ar
    26    14    16    1
    27    16    17   ar
    28    17    18   ar
    29    18    19   ar
    30    19    20   ar
    31    14    15   ar
    32    15    10   ar
    33     8     3    1
    34    27    22   ar
    35    20    16   ar
    36    32    28   ar
@<TRIPOS>MOLECULE
*****
 32 36 0 0 0
SMALL
GASTEIGER

@<TRIPOS>ATOM
      1 C          64.0675   84.9871   14.1606 C.2     1  UNL1        0.2506
      2 O          65.1383   85.7190   13.4072 O.2     1  UNL1       -0.2699
      3 N          63.4013   85.6362   15.3374 N.am    1  UNL1       -0.2723
      4 C          62.3304   84.9042   16.0908 C.3     1  UNL1        0.1257
      5 C          61.6642   85.5533   17.2676 C.3     1  UNL1        0.1637
      6 O          62.0688   86.9342   17.6910 O.3     1  UNL1       -0.3502
      7 C          63.1396   87.6661   16.9377 C.3     1  UNL1        0.1622
      8 C          63.8059   87.0171   15.7608 C.3     1  UNL1        0.1096
      9 C          62.4491   79.4634   12.4668 C.3     1  UNL1        0.0311
     10 C          62.8537   80.8443   12.8903 C.ar    1  UNL1       -0.0203
     11 C          63.6439   81.0412   14.1499 C.ar    1  UNL1       -0.0040
     12 C          64.0485   82.4221   14.5734 C.ar    1  UNL1        0.0058
     13 C          63.6629   83.6062   13.7371 C.ar    1  UNL1        0.0729
     14 C          62.8727   83.4093   12.4775 C.ar    1  UNL1        0.1069
     15 C          62.4681   82.0284   12.0540 C.ar    1  UNL1        0.0168
     16 N          62.4871   84.5934   11.6412 N.ar    1  UNL1       -0.1477
     17 N          61.6284   85.7417   12.0816 N.ar    1  UNL1       -0.1447
     18 C          61.5031   86.6951   10.9303 C.ar    1  UNL1        0.1446
     19 C          62.2843   86.1358    9.7783 C.ar    1  UNL1        0.1446
     20 N          62.8924   84.8370   10.2177 N.ar    1  UNL1       -0.1447
     21 C          64.8767   87.7490   15.0074 C.3     1  UNL1        0.0488
     22 C          64.5331   88.9790   14.2207 C.ar    1  UNL1       -0.0189
     23 C          65.2763   90.2585   14.4665 C.ar    1  UNL1       -0.0041
     24 C          64.9327   91.4885   13.6798 C.ar    1  UNL1        0.0013
     25 C          63.8458   91.4390   12.6472 C.ar    1  UNL1        0.0209
     26 C          63.1026   90.1595   12.4013 C.ar    1  UNL1        0.1026
     27 C          63.4463   88.9295   13.1881 C.ar    1  UNL1        0.0167
     28 N          62.0158   90.1100   11.3687 N.ar    1  UNL1       -0.1478
     29 N          60.5413   90.1742   11.6367 N.ar    1  UNL1       -0.1447
     30 C          59.8269   90.0914   10.3204 C.ar    1  UNL1        0.1446
     31 C          60.8598   89.9760    9.2388 C.ar    1  UNL1        0.1446
     32 N          62.2126   89.9875    9.8867 N.ar    1  UNL1       -0.1447
@<TRIPOS>BOND
     1     9    10    1
     2    10    11   ar
     3    11    12   ar
     4    12    13   ar
     5    13     1    1
     6     1     2    2
     7     1     3   am
     8     3     4    1
     9     4     5    1
    10     5     6    1
    11     6     7    1
    12     7     8    1
    13     8    21    1
    14    21    22    1
    15    22    23   ar
    16    23    24   ar
    17    24    25   ar
    18    25    26   ar
    19    26    28    1
    20    28    29   ar
    21    29    30   ar
    22    30    31   ar
    23    31    32   ar
    24    26    27   ar
    25    13    14   ar
    26    14    16    1
    27    16    17   ar
    28    17    18   ar
    29    18    19   ar
    30    19    20   ar
    31    14    15   ar
    32    15    10   ar
    33     8     3    1
    34    27    22   ar
    35    20    16   ar
    36    32    28   ar
