@<TRIPOS>MOLECULE
*****
 37 42 0 0 0
SMALL
GASTEIGER

@<TRIPOS>ATOM
      1 C          64.5356   91.6018   12.7527 C.3     1  UNL1        0.1095
      2 C          64.1569   90.7552   13.9315 C.3     1  UNL1        0.1597
      3 O          64.8693   90.9298   15.2400 O.3     1  UNL1       -0.3533
      4 C          65.9603   91.9510   15.3696 C.3     1  UNL1        0.1315
      5 C          66.8334   92.3460   16.5235 C.3     1  UNL1        0.0311
      6 C          67.7518   93.4367   16.0578 C.3     1  UNL1        0.0041
      7 C          67.4462   93.7159   14.6160 C.3     1  UNL1        0.0203
      8 C          66.3389   92.7976   14.1907 C.3     1  UNL1        0.1066
      9 N          65.6266   92.6230   12.8822 N.3     1  UNL1       -0.1534
     10 C          63.8233   91.4273   11.4441 C.3     1  UNL1        0.0261
     11 C          63.5938   91.3462    9.9641 C.3     1  UNL1        0.0020
     12 C          64.9663   91.6358   10.4954 C.3     1  UNL1        0.0020
     13 C          62.4328   91.1581   11.9384 C.3     1  UNL1        0.0867
     14 O          60.4443   90.5340   10.3872 O.2     1  UNL1       -0.2749
     15 C          61.5862   90.1181   11.2664 C.2     1  UNL1        0.2257
     16 N          61.8815   88.6621   11.4736 N.am    1  UNL1       -0.2794
     17 C          61.0349   87.6221   10.8016 C.3     1  UNL1        0.0948
     18 C          61.3301   86.1661   11.0089 C.3     1  UNL1        0.0375
     19 C          62.4721   85.7502   11.8881 C.3     1  UNL1        0.0609
     20 C          63.3187   86.7902   12.5601 C.3     1  UNL1        0.0375
     21 C          63.0234   88.2462   12.3528 C.3     1  UNL1        0.0948
     22 N          62.7673   84.2942   12.0952 N.3     1  UNL1       -0.2738
     23 C          62.6790   83.6991   13.4693 C.3     1  UNL1        0.0720
     24 C          62.9742   82.2430   13.6764 C.3     1  UNL1        0.0174
     25 C          63.3577   81.3822   12.5093 C.3     1  UNL1        0.0029
     26 C          63.4460   81.9773   11.1353 C.3     1  UNL1        0.0174
     27 C          63.1508   83.4333   10.9282 C.3     1  UNL1        0.0720
     28 S          66.0053   93.4697   11.7033 S.O2    1  UNL1        0.0634
     29 O          67.2016   92.5977   11.4614 O.2     1  UNL1       -0.1528
     30 O          65.0431   94.4154   11.6578 O.2     1  UNL1       -0.1528
     31 C          66.3840   94.3163   10.5244 C.ar    1  UNL1        0.1223
     32 C          67.3919   93.8141    9.5333 C.ar    1  UNL1        0.0208
     33 C          67.7707   94.6606    8.3544 C.ar    1  UNL1        0.0128
     34 C          67.1416   96.0093    8.1665 C.ar    1  UNL1        0.0578
     35 CL         67.5204   96.8558    6.9876 Cl      1  UNL1       -0.0822
     36 C          66.1338   96.5115    9.1575 C.ar    1  UNL1        0.0128
     37 C          65.7550   95.6649   10.3365 C.ar    1  UNL1        0.0208
@<TRIPOS>BOND
     1    14    15    2
     2    15    13    1
     3    13    10    1
     4     1    10    1
     5     1     2    1
     6     2     3    1
     7     3     4    1
     8     4     5    1
     9     5     6    1
    10     6     7    1
    11     8     7    1
    12     8     9    1
    13     9    28    1
    14    28    29    2
    15    28    30    2
    16    28    31    1
    17    31    32   ar
    18    32    33   ar
    19    33    34   ar
    20    34    35    1
    21    34    36   ar
    22    36    37   ar
    23    10    11    1
    24    11    12    1
    25    15    16   am
    26    16    17    1
    27    17    18    1
    28    18    19    1
    29    19    22    1
    30    22    23    1
    31    23    24    1
    32    24    25    1
    33    25    26    1
    34    26    27    1
    35    19    20    1
    36    20    21    1
    37    12    10    1
    38    21    16    1
    39     9     1    1
    40    37    31   ar
    41    27    22    1
    42     8     4    1
@<TRIPOS>MOLECULE
*****
 37 42 0 0 0
SMALL
GASTEIGER

@<TRIPOS>ATOM
      1 C          64.3620   90.3908   14.6637 C.3     1  UNL1        0.1095
      2 C          65.3876   91.1209   15.4790 C.3     1  UNL1        0.1597
      3 O          66.2803   92.1353   14.8276 O.3     1  UNL1       -0.3533
      4 C          66.1472   92.4194   13.3608 C.3     1  UNL1        0.1315
      5 C          66.8812   93.3581   12.4496 C.3     1  UNL1        0.0311
      6 C          66.3091   93.2080   11.0712 C.3     1  UNL1        0.0041
      7 C          65.2216   92.1766   11.1303 C.3     1  UNL1        0.0203
      8 C          65.1215   91.6893   12.5454 C.3     1  UNL1        0.1066
      9 N          64.2289   90.6750   13.1969 N.3     1  UNL1       -0.1534
     10 C          63.4693   89.3764   15.3151 C.3     1  UNL1        0.0261
     11 C          62.3093   88.7971   16.0692 C.3     1  UNL1        0.0020
     12 C          62.3892   90.2769   15.8371 C.3     1  UNL1        0.0020
     13 C          64.2395   88.1236   15.0193 C.3     1  UNL1        0.0867
     14 O          63.6989   86.8083   17.1937 O.2     1  UNL1       -0.2749
     15 C          63.8751   86.8399   15.7044 C.2     1  UNL1        0.2257
     16 N          63.6869   85.5878   14.9001 N.am    1  UNL1       -0.2794
     17 C          63.3225   84.3041   15.5852 C.3     1  UNL1        0.0948
     18 C          63.1343   83.0519   14.7809 C.3     1  UNL1        0.0375
     19 C          63.3105   83.0836   13.2916 C.3     1  UNL1        0.0609
     20 C          63.6749   84.3673   12.6066 C.3     1  UNL1        0.0375
     21 C          63.8631   85.6194   13.4108 C.3     1  UNL1        0.0948
     22 N          63.1223   81.8315   12.4874 N.3     1  UNL1       -0.2738
     23 C          62.7054   80.5601   13.1655 C.3     1  UNL1        0.0720
     24 C          62.5172   79.3080   12.3613 C.3     1  UNL1        0.0174
     25 C          62.7459   79.3273   10.8789 C.3     1  UNL1        0.0029
     26 C          63.1628   80.5986   10.2008 C.3     1  UNL1        0.0174
     27 C          63.3510   81.8508   11.0051 C.3     1  UNL1        0.0720
     28 S          63.2032   89.9448   12.3815 S.O2    1  UNL1        0.0634
     29 O          62.3706   91.1907   12.3131 O.2     1  UNL1       -0.1528
     30 O          63.7068   88.6978   12.2637 O.2     1  UNL1       -0.1528
     31 C          62.1774   89.2147   11.5662 C.ar    1  UNL1        0.1223
     32 C          62.3669   87.7607   11.2501 C.ar    1  UNL1        0.0208
     33 C          61.3412   87.0305   10.4347 C.ar    1  UNL1        0.0128
     34 C          60.1260   87.7544    9.9355 C.ar    1  UNL1        0.0578
     35 CL         59.1003   87.0242    9.1202 Cl      1  UNL1       -0.0822
     36 C          59.9365   89.2084   10.2516 C.ar    1  UNL1        0.0128
     37 C          60.9622   89.9386   11.0669 C.ar    1  UNL1        0.0208
@<TRIPOS>BOND
     1    14    15    2
     2    15    13    1
     3    13    10    1
     4     1    10    1
     5     1     2    1
     6     2     3    1
     7     3     4    1
     8     4     5    1
     9     5     6    1
    10     6     7    1
    11     8     7    1
    12     8     9    1
    13     9    28    1
    14    28    29    2
    15    28    30    2
    16    28    31    1
    17    31    32   ar
    18    32    33   ar
    19    33    34   ar
    20    34    35    1
    21    34    36   ar
    22    36    37   ar
    23    10    11    1
    24    11    12    1
    25    15    16   am
    26    16    17    1
    27    17    18    1
    28    18    19    1
    29    19    22    1
    30    22    23    1
    31    23    24    1
    32    24    25    1
    33    25    26    1
    34    26    27    1
    35    19    20    1
    36    20    21    1
    37    12    10    1
    38    21    16    1
    39     9     1    1
    40    37    31   ar
    41    27    22    1
    42     8     4    1
@<TRIPOS>MOLECULE
*****
 37 42 0 0 0
SMALL
GASTEIGER

@<TRIPOS>ATOM
      1 C          63.4544   91.1721   11.6858 C.3     1  UNL1        0.1095
      2 C          63.7447   92.2047   10.6374 C.3     1  UNL1        0.1597
      3 O          64.8600   93.1870   10.8407 O.3     1  UNL1       -0.3533
      4 C          65.6850   93.1365   12.0925 C.3     1  UNL1        0.1315
      5 C          66.8400   93.9673   12.5675 C.3     1  UNL1        0.0311
      6 C          67.2635   93.4480   13.9095 C.3     1  UNL1        0.0041
      7 C          66.3702   92.2964   14.2639 C.3     1  UNL1        0.0203
      8 C          65.3946   92.1038   13.1409 C.3     1  UNL1        0.1066
      9 N          64.2793   91.1216   12.9376 N.3     1  UNL1       -0.1534
     10 C          62.3391   90.1898   11.4825 C.3     1  UNL1        0.0261
     11 C          60.9937   89.5389   11.6087 C.3     1  UNL1        0.0020
     12 C          61.2887   90.8028   12.3605 C.3     1  UNL1        0.0020
     13 C          63.0022   89.2355   10.5339 C.3     1  UNL1        0.0867
     14 O          61.3646   88.3537    8.7198 O.2     1  UNL1       -0.2749
     15 C          62.2157   88.1097    9.9307 C.2     1  UNL1        0.2257
     16 N          62.2801   86.7398   10.5383 N.am    1  UNL1       -0.2794
     17 C          61.4936   85.6140    9.9351 C.3     1  UNL1        0.0948
     18 C          61.5581   84.2441   10.5428 C.3     1  UNL1        0.0375
     19 C          62.4092   84.0000   11.7536 C.3     1  UNL1        0.0609
     20 C          63.1957   85.1258   12.3569 C.3     1  UNL1        0.0375
     21 C          63.1312   86.4958   11.7492 C.3     1  UNL1        0.0948
     22 N          62.4736   82.6301   12.3612 N.3     1  UNL1       -0.2738
     23 C          62.8328   81.4483   11.5102 C.3     1  UNL1        0.0720
     24 C          62.8972   80.0784   12.1179 C.3     1  UNL1        0.0174
     25 C          62.6024   79.8904   13.5766 C.3     1  UNL1        0.0029
     26 C          62.2432   81.0722   14.4276 C.3     1  UNL1        0.0174
     27 C          62.1788   82.4421   13.8199 C.3     1  UNL1        0.0720
     28 S          63.9890   90.0889   13.9860 S.O2    1  UNL1        0.0634
     29 O          63.3859   91.1472   14.8614 O.2     1  UNL1       -0.1528
     30 O          64.4524   88.9399   13.4499 O.2     1  UNL1       -0.1528
     31 C          63.6986   89.0562   15.0346 C.ar    1  UNL1        0.1223
     32 C          63.0094   89.4523   16.3066 C.ar    1  UNL1        0.0208
     33 C          62.7190   88.4197   17.3552 C.ar    1  UNL1        0.0128
     34 C          63.1177   86.9911   17.1316 C.ar    1  UNL1        0.0578
     35 CL         62.8273   85.9585   18.1801 Cl      1  UNL1       -0.0822
     36 C          63.8068   86.5950   15.8595 C.ar    1  UNL1        0.0128
     37 C          64.0973   87.6276   14.8109 C.ar    1  UNL1        0.0208
@<TRIPOS>BOND
     1    14    15    2
     2    15    13    1
     3    13    10    1
     4     1    10    1
     5     1     2    1
     6     2     3    1
     7     3     4    1
     8     4     5    1
     9     5     6    1
    10     6     7    1
    11     8     7    1
    12     8     9    1
    13     9    28    1
    14    28    29    2
    15    28    30    2
    16    28    31    1
    17    31    32   ar
    18    32    33   ar
    19    33    34   ar
    20    34    35    1
    21    34    36   ar
    22    36    37   ar
    23    10    11    1
    24    11    12    1
    25    15    16   am
    26    16    17    1
    27    17    18    1
    28    18    19    1
    29    19    22    1
    30    22    23    1
    31    23    24    1
    32    24    25    1
    33    25    26    1
    34    26    27    1
    35    19    20    1
    36    20    21    1
    37    12    10    1
    38    21    16    1
    39     9     1    1
    40    37    31   ar
    41    27    22    1
    42     8     4    1
@<TRIPOS>MOLECULE
*****
 37 42 0 0 0
SMALL
GASTEIGER

@<TRIPOS>ATOM
      1 C          62.3254   88.4564   11.6928 C.3     1  UNL1        0.1095
      2 C          62.0007   89.8074   11.1279 C.3     1  UNL1        0.1597
      3 O          61.1500   89.9212    9.8976 O.3     1  UNL1       -0.3533
      4 C          60.6242   88.6840    9.2323 C.3     1  UNL1        0.1315
      5 C          59.7680   88.4846    8.0169 C.3     1  UNL1        0.0311
      6 C          59.5637   87.0103    7.8306 C.3     1  UNL1        0.0041
      7 C          60.2935   86.2985    8.9310 C.3     1  UNL1        0.0203
      8 C          60.9489   87.3329    9.7972 C.3     1  UNL1        0.1066
      9 N          61.7995   87.2191   11.0275 N.3     1  UNL1       -0.1534
     10 C          63.1760   88.3425   12.9231 C.3     1  UNL1        0.0261
     11 C          64.1670   87.7925   13.9056 C.3     1  UNL1        0.0020
     12 C          63.8758   87.0470   12.6370 C.3     1  UNL1        0.0020
     13 C          62.7716   89.5986   13.6365 C.3     1  UNL1        0.0867
     14 O          64.2210   90.5279   15.5821 O.2     1  UNL1       -0.2749
     15 C          63.8199   90.5475   14.1369 C.2     1  UNL1        0.2257
     16 N          64.4672   91.5163   13.1920 N.am    1  UNL1       -0.2794
     17 C          65.5155   92.4652   13.6925 C.3     1  UNL1        0.0948
     18 C          66.1628   93.4339   12.7476 C.3     1  UNL1        0.0375
     19 C          65.7617   93.4536   11.3024 C.3     1  UNL1        0.0609
     20 C          64.7134   92.5046   10.8019 C.3     1  UNL1        0.0375
     21 C          64.0661   91.5359   11.7468 C.3     1  UNL1        0.0948
     22 N          66.4090   94.4223   10.3576 N.3     1  UNL1       -0.2738
     23 C          66.0984   95.8865   10.4553 C.3     1  UNL1        0.0720
     24 C          66.7458   96.8552    9.5105 C.3     1  UNL1        0.0174
     25 C          67.7037   96.3596    8.4680 C.3     1  UNL1        0.0029
     26 C          68.0142   94.8954    8.3703 C.3     1  UNL1        0.0174
     27 C          67.3669   93.9267    9.3151 C.3     1  UNL1        0.0720
     28 S          62.1243   85.8681   11.5924 S.O2    1  UNL1        0.0634
     29 O          62.9956   85.5812   10.4056 O.2     1  UNL1       -0.1528
     30 O          61.4341   85.8243   12.7518 O.2     1  UNL1       -0.1528
     31 C          62.4491   84.5169   12.1573 C.ar    1  UNL1        0.1223
     32 C          62.3863   84.2885   13.6385 C.ar    1  UNL1        0.0208
     33 C          62.7111   82.9375   14.2035 C.ar    1  UNL1        0.0128
     34 C          63.0987   81.8149   13.2872 C.ar    1  UNL1        0.0578
     35 CL         63.4235   80.4639   13.8522 Cl      1  UNL1       -0.0822
     36 C          63.1615   82.0433   11.8061 C.ar    1  UNL1        0.0128
     37 C          62.8367   83.3944   11.2411 C.ar    1  UNL1        0.0208
@<TRIPOS>BOND
     1    14    15    2
     2    15    13    1
     3    13    10    1
     4     1    10    1
     5     1     2    1
     6     2     3    1
     7     3     4    1
     8     4     5    1
     9     5     6    1
    10     6     7    1
    11     8     7    1
    12     8     9    1
    13     9    28    1
    14    28    29    2
    15    28    30    2
    16    28    31    1
    17    31    32   ar
    18    32    33   ar
    19    33    34   ar
    20    34    35    1
    21    34    36   ar
    22    36    37   ar
    23    10    11    1
    24    11    12    1
    25    15    16   am
    26    16    17    1
    27    17    18    1
    28    18    19    1
    29    19    22    1
    30    22    23    1
    31    23    24    1
    32    24    25    1
    33    25    26    1
    34    26    27    1
    35    19    20    1
    36    20    21    1
    37    12    10    1
    38    21    16    1
    39     9     1    1
    40    37    31   ar
    41    27    22    1
    42     8     4    1
@<TRIPOS>MOLECULE
*****
 37 42 0 0 0
SMALL
GASTEIGER

@<TRIPOS>ATOM
      1 C          62.1685   94.4842    0.0310 C.3     1  UNL1        0.1095
      2 C          63.6581   94.3345    0.1221 C.3     1  UNL1        0.1597
      3 O          64.4565   94.0152   -1.1071 O.3     1  UNL1       -0.3533
      4 C          63.7650   93.8458   -2.4274 C.3     1  UNL1        0.1315
      5 C          64.2840   93.5312   -3.7991 C.3     1  UNL1        0.0311
      6 C          63.1150   93.4865   -4.7380 C.3     1  UNL1        0.0041
      7 C          61.8735   93.7735   -3.9465 C.3     1  UNL1        0.0203
      8 C          62.2752   93.9955   -2.5185 C.3     1  UNL1        0.1066
      9 N          61.4770   94.3148   -1.2893 N.3     1  UNL1       -0.1534
     10 C          61.3702   94.8035    1.2602 C.3     1  UNL1        0.0261
     11 C          60.6359   95.6021    2.2959 C.3     1  UNL1        0.0020
     12 C          61.2771   96.2949    1.1303 C.3     1  UNL1        0.0020
     13 C          61.1860   93.4228    1.8169 C.3     1  UNL1        0.0867
     14 O          58.5905   93.5386    1.8199 O.2     1  UNL1       -0.2749
     15 C          59.8686   93.0241    2.4130 C.2     1  UNL1        0.2257
     16 N          59.8291   92.1107    3.6023 N.am    1  UNL1       -0.2794
     17 C          58.5117   91.7120    4.1983 C.3     1  UNL1        0.0948
     18 C          58.4723   90.7987    5.3876 C.3     1  UNL1        0.0375
     19 C          59.7503   90.2841    5.9807 C.3     1  UNL1        0.0609
     20 C          61.0678   90.6828    5.3847 C.3     1  UNL1        0.0375
     21 C          61.1072   91.5962    4.1954 C.3     1  UNL1        0.0948
     22 N          59.7108   89.3708    7.1700 N.3     1  UNL1       -0.2738
     23 C          60.3337   89.7990    8.4656 C.3     1  UNL1        0.0720
     24 C          60.2941   88.8856    9.6548 C.3     1  UNL1        0.0174
     25 C          59.6317   87.5440    9.5483 C.3     1  UNL1        0.0029
     26 C          59.0088   87.1158    8.2527 C.3     1  UNL1        0.0174
     27 C          59.0484   88.0292    7.0635 C.3     1  UNL1        0.0720
     28 S          59.9873   94.4645   -1.3804 S.O2    1  UNL1        0.0634
     29 O          59.8267   92.9860   -1.1851 O.2     1  UNL1       -0.1528
     30 O          59.8031   95.7882   -1.5707 O.2     1  UNL1       -0.1528
     31 C          58.4975   94.6142   -1.4714 C.ar    1  UNL1        0.1223
     32 C          57.6431   93.4259   -1.8000 C.ar    1  UNL1        0.0208
     33 C          56.1534   93.5755   -1.8911 C.ar    1  UNL1        0.0128
     34 C          55.5181   94.9134   -1.6536 C.ar    1  UNL1        0.0578
     35 CL         54.0284   95.0630   -1.7447 Cl      1  UNL1       -0.0822
     36 C          56.3725   96.1017   -1.3251 C.ar    1  UNL1        0.0128
     37 C          57.8623   95.9521   -1.2340 C.ar    1  UNL1        0.0208
@<TRIPOS>BOND
     1    14    15    2
     2    15    13    1
     3    13    10    1
     4     1    10    1
     5     1     2    1
     6     2     3    1
     7     3     4    1
     8     4     5    1
     9     5     6    1
    10     6     7    1
    11     8     7    1
    12     8     9    1
    13     9    28    1
    14    28    29    2
    15    28    30    2
    16    28    31    1
    17    31    32   ar
    18    32    33   ar
    19    33    34   ar
    20    34    35    1
    21    34    36   ar
    22    36    37   ar
    23    10    11    1
    24    11    12    1
    25    15    16   am
    26    16    17    1
    27    17    18    1
    28    18    19    1
    29    19    22    1
    30    22    23    1
    31    23    24    1
    32    24    25    1
    33    25    26    1
    34    26    27    1
    35    19    20    1
    36    20    21    1
    37    12    10    1
    38    21    16    1
    39     9     1    1
    40    37    31   ar
    41    27    22    1
    42     8     4    1
@<TRIPOS>MOLECULE
*****
 37 42 0 0 0
SMALL
GASTEIGER

@<TRIPOS>ATOM
      1 C          60.5397   88.6137   10.1358 C.3     1  UNL1        0.1095
      2 C          59.7734   89.3627    9.0863 C.3     1  UNL1        0.1597
      3 O          59.4581   88.7053    7.7754 O.3     1  UNL1       -0.3533
      4 C          59.9091   87.2988    7.5141 C.3     1  UNL1        0.1315
      5 C          59.7468   86.3970    6.3265 C.3     1  UNL1        0.0311
      6 C          60.4129   85.0906    6.6421 C.3     1  UNL1        0.0041
      7 C          60.9869   85.1850    8.0247 C.3     1  UNL1        0.0203
      8 C          60.6755   86.5497    8.5637 C.3     1  UNL1        0.1066
      9 N          60.9908   87.2072    9.8745 N.3     1  UNL1       -0.1534
     10 C          60.8551   89.2711   11.4468 C.3     1  UNL1        0.0261
     11 C          60.6503   89.9199   12.7835 C.3     1  UNL1        0.0020
     12 C          59.4667   89.4749   11.9766 C.3     1  UNL1        0.0020
     13 C          62.3531   89.2955   11.3722 C.3     1  UNL1        0.0867
     14 O          62.7162   91.3360    9.8055 O.2     1  UNL1       -0.2749
     15 C          63.0671   90.5745   11.0492 C.2     1  UNL1        0.2257
     16 N          64.1322   91.0920   11.9700 N.am    1  UNL1       -0.2794
     17 C          64.8463   92.3709   11.6471 C.3     1  UNL1        0.0948
     18 C          65.9114   92.8884   12.5679 C.3     1  UNL1        0.0375
     19 C          66.2624   92.1268   13.8116 C.3     1  UNL1        0.0609
     20 C          65.5483   90.8479   14.1346 C.3     1  UNL1        0.0375
     21 C          64.4832   90.3304   13.2138 C.3     1  UNL1        0.0948
     22 N          67.3274   92.6444   14.7323 N.3     1  UNL1       -0.2738
     23 C          67.5796   94.1195   14.8334 C.3     1  UNL1        0.0720
     24 C          68.6448   94.6370   15.7541 C.3     1  UNL1        0.0174
     25 C          69.4576   93.6792   16.5739 C.3     1  UNL1        0.0029
     26 C          69.2054   92.2040   16.4729 C.3     1  UNL1        0.0174
     27 C          68.1403   91.6866   15.5521 C.3     1  UNL1        0.0720
     28 S          61.7572   86.4581   10.9241 S.O2    1  UNL1        0.0634
     29 O          62.9464   86.3966   10.0119 O.2     1  UNL1       -0.1528
     30 O          60.8857   86.3487   11.9492 O.2     1  UNL1       -0.1528
     31 C          62.5237   85.7091   11.9736 C.ar    1  UNL1        0.1223
     32 C          63.2782   86.4600   13.0304 C.ar    1  UNL1        0.0208
     33 C          64.0447   85.7110   14.0799 C.ar    1  UNL1        0.0128
     34 C          64.0566   84.2111   14.0726 C.ar    1  UNL1        0.0578
     35 CL         64.8231   83.4621   15.1222 Cl      1  UNL1       -0.0822
     36 C          63.3021   83.4602   13.0159 C.ar    1  UNL1        0.0128
     37 C          62.5356   84.2092   11.9663 C.ar    1  UNL1        0.0208
@<TRIPOS>BOND
     1    14    15    2
     2    15    13    1
     3    13    10    1
     4     1    10    1
     5     1     2    1
     6     2     3    1
     7     3     4    1
     8     4     5    1
     9     5     6    1
    10     6     7    1
    11     8     7    1
    12     8     9    1
    13     9    28    1
    14    28    29    2
    15    28    30    2
    16    28    31    1
    17    31    32   ar
    18    32    33   ar
    19    33    34   ar
    20    34    35    1
    21    34    36   ar
    22    36    37   ar
    23    10    11    1
    24    11    12    1
    25    15    16   am
    26    16    17    1
    27    17    18    1
    28    18    19    1
    29    19    22    1
    30    22    23    1
    31    23    24    1
    32    24    25    1
    33    25    26    1
    34    26    27    1
    35    19    20    1
    36    20    21    1
    37    12    10    1
    38    21    16    1
    39     9     1    1
    40    37    31   ar
    41    27    22    1
    42     8     4    1
@<TRIPOS>MOLECULE
*****
 37 42 0 0 0
SMALL
GASTEIGER

@<TRIPOS>ATOM
      1 C          60.8616   88.7867    9.7962 C.3     1  UNL1        0.1095
      2 C          60.5109   90.2443    9.8421 C.3     1  UNL1        0.1597
      3 O          61.2031   91.1520   10.8153 O.3     1  UNL1       -0.3533
      4 C          62.2460   90.6019   11.7425 C.3     1  UNL1        0.1315
      5 C          63.0903   91.2487   12.8002 C.3     1  UNL1        0.0311
      6 C          63.9629   90.1908   13.4079 C.3     1  UNL1        0.0041
      7 C          63.6578   88.8901   12.7259 C.3     1  UNL1        0.0203
      8 C          62.5967   89.1442   11.6966 C.3     1  UNL1        0.1066
      9 N          61.9045   88.2366   10.7234 N.3     1  UNL1       -0.1534
     10 C          60.1694   87.8790    8.8230 C.3     1  UNL1        0.0261
     11 C          59.4244   86.6927    8.2867 C.3     1  UNL1        0.0020
     12 C          59.7768   86.7613    9.7431 C.3     1  UNL1        0.0020
     13 C          60.3216   88.6815    7.5648 C.3     1  UNL1        0.0867
     14 O          57.7398   88.8347    7.3185 O.2     1  UNL1       -0.2749
     15 C          59.1128   89.2700    6.8997 C.2     1  UNL1        0.2257
     16 N          59.2770   90.2939    5.8159 N.am    1  UNL1       -0.2794
     17 C          58.0682   90.8825    5.1508 C.3     1  UNL1        0.0948
     18 C          58.2324   91.9063    4.0669 C.3     1  UNL1        0.0375
     19 C          59.6054   92.3416    3.6482 C.3     1  UNL1        0.0609
     20 C          60.8142   91.7531    4.3132 C.3     1  UNL1        0.0375
     21 C          60.6500   90.7292    5.3971 C.3     1  UNL1        0.0948
     22 N          59.7695   93.3655    2.5643 N.3     1  UNL1       -0.2738
     23 C          60.3638   94.7055    2.8821 C.3     1  UNL1        0.0720
     24 C          60.5279   95.7294    1.7982 C.3     1  UNL1        0.0174
     25 C          60.0976   95.4131    0.3964 C.3     1  UNL1        0.0029
     26 C          59.5033   94.0730    0.0786 C.3     1  UNL1        0.0174
     27 C          59.3392   93.0492    1.1626 C.3     1  UNL1        0.0720
     28 S          62.2552   86.7789   10.6774 S.O2    1  UNL1        0.0634
     29 O          62.8702   86.9696    9.3226 O.2     1  UNL1       -0.1528
     30 O          61.7945   86.2950   11.8504 O.2     1  UNL1       -0.1528
     31 C          62.6059   85.3212   10.6314 C.ar    1  UNL1        0.1223
     32 C          63.2093   84.7339    9.3900 C.ar    1  UNL1        0.0208
     33 C          63.5601   83.2762    9.3439 C.ar    1  UNL1        0.0128
     34 C          63.3074   82.4059   10.5391 C.ar    1  UNL1        0.0578
     35 CL         63.6582   80.9482   10.4930 Cl      1  UNL1       -0.0822
     36 C          62.7040   82.9932   11.7805 C.ar    1  UNL1        0.0128
     37 C          62.3532   84.4509   11.8266 C.ar    1  UNL1        0.0208
@<TRIPOS>BOND
     1    14    15    2
     2    15    13    1
     3    13    10    1
     4     1    10    1
     5     1     2    1
     6     2     3    1
     7     3     4    1
     8     4     5    1
     9     5     6    1
    10     6     7    1
    11     8     7    1
    12     8     9    1
    13     9    28    1
    14    28    29    2
    15    28    30    2
    16    28    31    1
    17    31    32   ar
    18    32    33   ar
    19    33    34   ar
    20    34    35    1
    21    34    36   ar
    22    36    37   ar
    23    10    11    1
    24    11    12    1
    25    15    16   am
    26    16    17    1
    27    17    18    1
    28    18    19    1
    29    19    22    1
    30    22    23    1
    31    23    24    1
    32    24    25    1
    33    25    26    1
    34    26    27    1
    35    19    20    1
    36    20    21    1
    37    12    10    1
    38    21    16    1
    39     9     1    1
    40    37    31   ar
    41    27    22    1
    42     8     4    1
@<TRIPOS>MOLECULE
*****
 37 42 0 0 0
SMALL
GASTEIGER

@<TRIPOS>ATOM
      1 C          63.8048   86.9891   14.7084 C.3     1  UNL1        0.1095
      2 C          64.5518   86.3227   15.8254 C.3     1  UNL1        0.1597
      3 O          64.9641   84.8859   15.6998 O.3     1  UNL1       -0.3533
      4 C          64.6294   84.1156   14.4570 C.3     1  UNL1        0.1315
      5 C          64.9028   82.6978   14.0507 C.3     1  UNL1        0.0311
      6 C          64.3248   82.4880   12.6826 C.3     1  UNL1        0.0041
      7 C          63.6941   83.7761   12.2433 C.3     1  UNL1        0.0203
      8 C          63.8824   84.7821   13.3399 C.3     1  UNL1        0.1066
      9 N          63.4701   86.2188   13.4656 N.3     1  UNL1       -0.1534
     10 C          63.3925   88.4259   14.8341 C.3     1  UNL1        0.0261
     11 C          62.6269   89.6395   15.2707 C.3     1  UNL1        0.0020
     12 C          62.2317   88.2826   15.7733 C.3     1  UNL1        0.0020
     13 C          64.4102   89.0681   13.9386 C.3     1  UNL1        0.0867
     14 O          65.3362   90.6758   15.7573 O.2     1  UNL1       -0.2749
     15 C          65.0211   90.3838   14.3201 C.2     1  UNL1        0.2257
     16 N          65.3169   91.4077   13.2645 N.am    1  UNL1       -0.2794
     17 C          65.9278   92.7234   13.6461 C.3     1  UNL1        0.0948
     18 C          66.2237   93.7472   12.5905 C.3     1  UNL1        0.0375
     19 C          65.9085   93.4553   11.1533 C.3     1  UNL1        0.0609
     20 C          65.2976   92.1396   10.7717 C.3     1  UNL1        0.0375
     21 C          65.0018   91.1157   11.8273 C.3     1  UNL1        0.0948
     22 N          66.2043   94.4792   10.0978 N.3     1  UNL1       -0.2738
     23 C          65.5532   95.8291   10.1588 C.3     1  UNL1        0.0720
     24 C          65.8491   96.8529    9.1032 C.3     1  UNL1        0.0174
     25 C          66.7962   96.5268    7.9866 C.3     1  UNL1        0.0029
     26 C          67.4473   95.1769    7.9256 C.3     1  UNL1        0.0174
     27 C          67.1514   94.1530    8.9812 C.3     1  UNL1        0.0720
     28 S          62.7231   86.8852   12.3486 S.O2    1  UNL1        0.0634
     29 O          61.6894   85.7991   12.3919 O.2     1  UNL1       -0.1528
     30 O          63.4630   87.9788   12.0675 O.2     1  UNL1       -0.1528
     31 C          61.9760   87.5516   11.2315 C.ar    1  UNL1        0.1223
     32 C          60.9527   86.7822   10.4498 C.ar    1  UNL1        0.0208
     33 C          60.2056   87.4485    9.3327 C.ar    1  UNL1        0.0128
     34 C          60.4817   88.8842    8.9974 C.ar    1  UNL1        0.0578
     35 CL         59.7346   89.5505    7.8803 Cl      1  UNL1       -0.0822
     36 C          61.5049   89.6536    9.7791 C.ar    1  UNL1        0.0128
     37 C          62.2521   88.9873   10.8962 C.ar    1  UNL1        0.0208
@<TRIPOS>BOND
     1    14    15    2
     2    15    13    1
     3    13    10    1
     4     1    10    1
     5     1     2    1
     6     2     3    1
     7     3     4    1
     8     4     5    1
     9     5     6    1
    10     6     7    1
    11     8     7    1
    12     8     9    1
    13     9    28    1
    14    28    29    2
    15    28    30    2
    16    28    31    1
    17    31    32   ar
    18    32    33   ar
    19    33    34   ar
    20    34    35    1
    21    34    36   ar
    22    36    37   ar
    23    10    11    1
    24    11    12    1
    25    15    16   am
    26    16    17    1
    27    17    18    1
    28    18    19    1
    29    19    22    1
    30    22    23    1
    31    23    24    1
    32    24    25    1
    33    25    26    1
    34    26    27    1
    35    19    20    1
    36    20    21    1
    37    12    10    1
    38    21    16    1
    39     9     1    1
    40    37    31   ar
    41    27    22    1
    42     8     4    1
