@<TRIPOS>MOLECULE
*****
 63 68 0 0 0
SMALL
GASTEIGER

@<TRIPOS>ATOM
      1 C          63.8338   83.3309   13.8044 C.3     1  UNL1        0.1914
      2 C          64.1168   83.2269   15.2738 C.3     1  UNL1        0.1845
      3 O          64.3711   81.7565   15.1207 O.3     1  UNL1       -0.3487
      4 C          64.0880   81.8605   13.6513 C.3     1  UNL1        0.1567
      5 C          63.9701   81.2155   12.3023 C.3     1  UNL1        0.0629
      6 C          63.5979   82.0407   11.1063 C.3     1  UNL1        0.1198
      7 O          63.4799   81.3956    9.7572 O.3     1  UNL1       -0.3840
      8 C          63.3436   83.5111   11.2594 C.3     1  UNL1        0.0858
      9 C          63.2739   82.6986   10.0004 C.3     1  UNL1        0.0101
     10 C          63.0045   83.9922    9.8797 C.2     1  UNL1        0.1828
     11 O          63.0339   82.8890    8.8637 O.2     1  UNL1       -0.2931
     12 C          62.6428   85.3176    9.2776 C.3     1  UNL1        0.1857
     13 O          62.3954   85.2288    7.8008 O.3     1  UNL1       -0.3734
     14 C          62.4704   86.7108    9.8057 C.2     1  UNL1       -0.0137
     15 C          62.2101   88.1925    9.9366 C.2     1  UNL1       -0.0097
     16 C          61.8513   88.8513    8.6377 C.3     1  UNL1        0.0294
     17 C          62.2798   89.0051   11.1956 C.3     1  UNL1        0.1892
     18 C          62.6386   88.3463   12.4945 C.3     1  UNL1        0.0787
     19 C          62.9276   86.8748   12.5345 C.3     1  UNL1        0.1319
     20 O          62.8982   87.9780   13.5505 O.3     1  UNL1       -0.3828
     21 C          63.2893   85.5494   13.1366 C.3     1  UNL1        0.1976
     22 C          63.4616   84.1562   12.6085 C.3     1  UNL1        0.0929
     23 C          62.5884   87.3559   11.1548 C.3     1  UNL1        0.0433
     24 C          62.4671   88.3654   11.5573 C.3     1  UNL1        0.0066
     25 C          62.2247   88.6699   10.5293 C.3     1  UNL1        0.0066
     26 H          63.2340   82.0647    9.0993 H       1  UNL1        0.2104
     27 H          62.1659   86.1067    7.4581 H       1  UNL1        0.2113
     28 H          63.1231   87.6198   14.4234 H       1  UNL1        0.2104
     29 O          63.6615   84.7242   14.3325 O.3     1  UNL1       -0.4506
     30 C          63.1020   85.0878   16.8435 C.3     1  UNL1        0.1212
     31 C          62.6581   84.9978   15.4135 C.2     1  UNL1        0.3175
     32 O          61.2109   85.1813   15.0645 O.2     1  UNL1       -0.2501
     33 O          61.9908   90.4764   11.1555 O.3     1  UNL1       -0.4463
     34 C          63.0320   91.4578   11.6059 C.2     1  UNL1        0.3464
     35 O          63.1603   91.8004   13.0606 O.2     1  UNL1       -0.2473
     36 C          63.9450   92.0964   10.6016 C.3     1  UNL1        0.2321
     37 O          63.4864   92.2878    9.1863 O.3     1  UNL1       -0.3729
     38 H          64.1917   92.7113    8.6724 H       1  UNL1        0.2111
     39 C          65.3165   92.5437   11.0126 C.3     1  UNL1        0.1351
     40 C          65.9761   93.6886   10.3026 C.ar    1  UNL1       -0.0015
     41 C          65.3685   95.0586   10.3628 C.ar    1  UNL1       -0.0026
     42 C          66.0281   96.2035    9.6529 C.ar    1  UNL1       -0.0003
     43 C          67.2954   95.9784    8.8826 C.ar    1  UNL1       -0.0000
     44 C          67.9031   94.6082    8.8224 C.ar    1  UNL1       -0.0003
     45 C          67.2434   93.4634    9.5324 C.ar    1  UNL1       -0.0026
     46 N          66.0283   91.8460   12.1336 N.am    1  UNL1       -0.2655
     47 C          66.4328   92.6130   13.3576 C.2     1  UNL1        0.4017
     48 O          66.1255   94.0775   13.4606 O.2     1  UNL1       -0.2264
     49 H          66.2300   90.8848   12.0660 H       1  UNL1        0.1531
     50 O          67.1446   91.9153   14.4786 O.3     1  UNL1       -0.4419
     51 C          68.1736   92.6499   15.2858 C.3     1  UNL1        0.1378
     52 C          67.1604   92.8801   16.3677 C.3     1  UNL1        0.0437
     53 C          69.1867   92.4197   14.2040 C.3     1  UNL1        0.0437
     54 C          69.2025   93.3845   16.0931 C.3     1  UNL1        0.0437
     55 O          63.5367   85.6382   14.6134 O.3     1  UNL1       -0.4466
     56 C          64.6123   86.5410   15.1408 C.2     1  UNL1        0.3412
     57 O          66.0241   86.0446   15.2439 O.2     1  UNL1       -0.2449
     58 C          64.2763   87.9399   15.5650 C.ar    1  UNL1        0.0756
     59 C          63.3085   88.1712   16.6874 C.ar    1  UNL1        0.0064
     60 C          62.9725   89.5701   17.1116 C.ar    1  UNL1        0.0002
     61 C          63.6041   90.7378   16.4133 C.ar    1  UNL1        0.0000
     62 C          64.5719   90.5065   15.2909 C.ar    1  UNL1        0.0002
     63 C          64.9079   89.1075   14.8667 C.ar    1  UNL1        0.0064
@<TRIPOS>BOND
     1    30    31    1
     2    31    32    2
     3    31    29    1
     4     1    29    1
     5     1     2    1
     6     2     3    1
     7     3     4    1
     8     4     5    1
     9     5     6    1
    10     6     7    1
    11     6     8    1
    12     8     9    1
    13     8    10    1
    14    10    11    2
    15    10    12    1
    16    12    13    1
    17    12    14    1
    18    14    15    2
    19    15    16    1
    20    15    17    1
    21    17    33    1
    22    33    34    1
    23    34    35    2
    24    34    36    1
    25    36    37    1
    26    36    39    1
    27    39    46    1
    28    46    47   am
    29    47    48    2
    30    47    50    1
    31    50    51    1
    32    51    52    1
    33    51    53    1
    34    51    54    1
    35    39    40    1
    36    40    41   ar
    37    41    42   ar
    38    42    43   ar
    39    43    44   ar
    40    44    45   ar
    41    17    18    1
    42    18    19    1
    43    19    20    1
    44    19    21    1
    45    21    55    1
    46    55    56    1
    47    56    57    2
    48    56    58    1
    49    58    59   ar
    50    59    60   ar
    51    60    61   ar
    52    61    62   ar
    53    62    63   ar
    54    22    21    1
    55    19    23    1
    56    23    24    1
    57    23    25    1
    58     4     1    1
    59    22     8    1
    60    22     1    1
    61    23    14    1
    62    45    40   ar
    63    63    58   ar
    64     7    26    1
    65    13    27    1
    66    37    38    1
    67    46    49    1
    68    20    28    1
@<TRIPOS>MOLECULE
*****
 63 68 0 0 0
SMALL
GASTEIGER

@<TRIPOS>ATOM
      1 C          62.8467   83.8554   10.8729 C.3     1  UNL1        0.1914
      2 C          62.3967   83.6047    9.4640 C.3     1  UNL1        0.1845
      3 O          62.5274   82.1268    9.6852 O.3     1  UNL1       -0.3487
      4 C          62.9774   82.3775   11.0941 C.3     1  UNL1        0.1567
      5 C          63.4324   81.8556   12.4246 C.3     1  UNL1        0.0629
      6 C          63.7567   82.8116   13.5342 C.3     1  UNL1        0.1198
      7 O          64.2117   82.2897   14.8648 O.3     1  UNL1       -0.3840
      8 C          63.6260   84.2895   13.3130 C.3     1  UNL1        0.0858
      9 C          64.0625   83.5886   14.5654 C.3     1  UNL1        0.0101
     10 C          64.0267   84.9140   14.6165 C.2     1  UNL1        0.1828
     11 O          64.4044   83.8941   15.6497 O.2     1  UNL1       -0.2931
     12 C          64.1385   86.3192   15.1294 C.3     1  UNL1        0.1857
     13 O          64.6017   86.3747   16.5550 O.3     1  UNL1       -0.3734
     14 C          63.8958   87.6818   14.5512 C.2     1  UNL1       -0.0137
     15 C          63.7714   89.1733   14.3508 C.2     1  UNL1       -0.0097
     16 C          64.1370   89.9704   15.5677 C.3     1  UNL1        0.0294
     17 C          63.3348   89.8741   13.0985 C.3     1  UNL1        0.1892
     18 C          62.9692   89.0770   11.8816 C.3     1  UNL1        0.0787
     19 C          63.0400   87.5790   11.9170 C.3     1  UNL1        0.1319
     20 O          62.6624   88.5989   10.8839 O.3     1  UNL1       -0.3828
     21 C          62.9283   86.1739   11.4041 C.3     1  UNL1        0.1976
     22 C          63.1710   84.8113   11.9823 C.3     1  UNL1        0.0929
     23 C          63.4408   88.2036   13.2206 C.3     1  UNL1        0.0433
     24 C          63.2588   89.1889   12.7825 C.3     1  UNL1        0.0066
     25 C          63.5605   89.5995   13.7565 C.3     1  UNL1        0.0066
     26 H          64.3779   83.0339   15.4644 H       1  UNL1        0.2104
     27 H          64.6583   87.3000   16.8407 H       1  UNL1        0.2113
     28 H          62.4119   88.1490   10.0618 H       1  UNL1        0.2104
     29 O          62.6040   85.2179   10.2947 O.3     1  UNL1       -0.4506
     30 C          63.2669   84.5359    7.8769 C.3     1  UNL1        0.1212
     31 C          63.1731   85.5759    8.9537 C.2     1  UNL1        0.3175
     32 O          63.6483   86.9739    8.6897 O.2     1  UNL1       -0.2501
     33 O          63.2640   91.3720   13.0631 O.3     1  UNL1       -0.4463
     34 C          64.5261   92.1821   13.0379 C.2     1  UNL1        0.3464
     35 O          65.2541   92.4764   14.3159 O.2     1  UNL1       -0.2473
     36 C          65.0603   92.6979   11.7345 C.3     1  UNL1        0.2321
     37 O          64.4005   92.3060   10.4457 O.3     1  UNL1       -0.3729
     38 H          64.8666   92.7226    9.7041 H       1  UNL1        0.2111
     39 C          66.2544   93.6057   11.7200 C.3     1  UNL1        0.1351
     40 C          66.4957   94.5088   10.5470 C.ar    1  UNL1       -0.0015
     41 C          65.8212   95.8469   10.4793 C.ar    1  UNL1       -0.0026
     42 C          66.0625   96.7499    9.3062 C.ar    1  UNL1       -0.0003
     43 C          66.9783   96.3150    8.2007 C.ar    1  UNL1       -0.0000
     44 C          67.6528   94.9768    8.2684 C.ar    1  UNL1       -0.0003
     45 C          67.4115   94.0738    9.4415 C.ar    1  UNL1       -0.0026
     46 N          67.2071   93.6103   12.8787 N.am    1  UNL1       -0.2655
     47 C          68.3009   92.5866   12.9542 C.2     1  UNL1        0.4017
     48 O          68.4420   91.5584   11.8713 O.2     1  UNL1       -0.2264
     49 H          67.1145   94.2852   13.5895 H       1  UNL1        0.1531
     50 O          69.2536   92.5912   14.1129 O.3     1  UNL1       -0.4419
     51 C          68.7270   92.5519   15.5169 C.3     1  UNL1        0.1378
     52 C          68.0249   91.2607   15.2172 C.3     1  UNL1        0.0437
     53 C          69.4292   93.8430   15.8164 C.3     1  UNL1        0.0437
     54 C          68.2004   92.5125   16.9208 C.3     1  UNL1        0.0437
     55 O          62.4651   86.1183    9.9785 O.3     1  UNL1       -0.4466
     56 C          61.0618   86.5172    9.6296 C.2     1  UNL1        0.3412
     57 O          60.2315   85.6391    8.7410 O.2     1  UNL1       -0.2449
     58 C          60.4889   87.7941   10.1693 C.ar    1  UNL1        0.0756
     59 C          60.5779   89.0558    9.3630 C.ar    1  UNL1        0.0064
     60 C          60.0050   90.3327    9.9027 C.ar    1  UNL1        0.0002
     61 C          59.3430   90.3478   11.2487 C.ar    1  UNL1        0.0000
     62 C          59.2540   89.0861   12.0549 C.ar    1  UNL1        0.0002
     63 C          59.8270   87.8092   11.5153 C.ar    1  UNL1        0.0064
@<TRIPOS>BOND
     1    30    31    1
     2    31    32    2
     3    31    29    1
     4     1    29    1
     5     1     2    1
     6     2     3    1
     7     3     4    1
     8     4     5    1
     9     5     6    1
    10     6     7    1
    11     6     8    1
    12     8     9    1
    13     8    10    1
    14    10    11    2
    15    10    12    1
    16    12    13    1
    17    12    14    1
    18    14    15    2
    19    15    16    1
    20    15    17    1
    21    17    33    1
    22    33    34    1
    23    34    35    2
    24    34    36    1
    25    36    37    1
    26    36    39    1
    27    39    46    1
    28    46    47   am
    29    47    48    2
    30    47    50    1
    31    50    51    1
    32    51    52    1
    33    51    53    1
    34    51    54    1
    35    39    40    1
    36    40    41   ar
    37    41    42   ar
    38    42    43   ar
    39    43    44   ar
    40    44    45   ar
    41    17    18    1
    42    18    19    1
    43    19    20    1
    44    19    21    1
    45    21    55    1
    46    55    56    1
    47    56    57    2
    48    56    58    1
    49    58    59   ar
    50    59    60   ar
    51    60    61   ar
    52    61    62   ar
    53    62    63   ar
    54    22    21    1
    55    19    23    1
    56    23    24    1
    57    23    25    1
    58     4     1    1
    59    22     8    1
    60    22     1    1
    61    23    14    1
    62    45    40   ar
    63    63    58   ar
    64     7    26    1
    65    13    27    1
    66    37    38    1
    67    46    49    1
    68    20    28    1
@<TRIPOS>MOLECULE
*****
 63 68 0 0 0
SMALL
GASTEIGER

@<TRIPOS>ATOM
      1 C          63.8332   83.4929   13.8696 C.3     1  UNL1        0.1914
      2 C          64.1043   83.4467   15.3443 C.3     1  UNL1        0.1845
      3 O          64.3726   81.9739   15.2488 O.3     1  UNL1       -0.3487
      4 C          64.1015   82.0201   13.7742 C.3     1  UNL1        0.1567
      5 C          64.0008   81.3237   12.4495 C.3     1  UNL1        0.0629
      6 C          63.6319   82.1001   11.2202 C.3     1  UNL1        0.1198
      7 O          63.5313   81.4037    9.8955 O.3     1  UNL1       -0.3840
      8 C          63.3636   83.5728   11.3156 C.3     1  UNL1        0.0858
      9 C          63.3118   82.7129   10.0876 C.3     1  UNL1        0.0101
     10 C          63.0323   83.9986    9.9160 C.2     1  UNL1        0.1828
     11 O          63.0801   82.8583    8.9426 O.2     1  UNL1       -0.2931
     12 C          62.6644   85.2971    9.2614 C.3     1  UNL1        0.1857
     13 O          62.4306   85.1506    7.7870 O.3     1  UNL1       -0.3734
     14 C          62.4754   86.7076    9.7352 C.2     1  UNL1       -0.0137
     15 C          62.2011   88.1908    9.8080 C.2     1  UNL1       -0.0097
     16 C          61.8480   88.7971    8.4822 C.3     1  UNL1        0.0294
     17 C          62.2529   89.0507   11.0360 C.3     1  UNL1        0.1892
     18 C          62.6060   88.4445   12.3617 C.3     1  UNL1        0.0787
     19 C          62.9074   86.9782   12.4596 C.3     1  UNL1        0.1319
     20 O          62.8596   88.1185   13.4330 O.3     1  UNL1       -0.3828
     21 C          63.2753   85.6797   13.1142 C.3     1  UNL1        0.1976
     22 C          63.4643   84.2692   12.6404 C.3     1  UNL1        0.0929
     23 C          62.5761   87.4040   11.0599 C.3     1  UNL1        0.0433
     24 C          62.4425   88.4268   11.4231 C.3     1  UNL1        0.0066
     25 C          62.2065   88.6902   10.3824 C.3     1  UNL1        0.0066
     26 H          63.2853   82.0452    9.2108 H       1  UNL1        0.2104
     27 H          62.1965   86.0129    7.4095 H       1  UNL1        0.2113
     28 H          63.0800   87.7954   14.3206 H       1  UNL1        0.2104
     29 O          63.6442   84.9034   14.3435 O.3     1  UNL1       -0.4506
     30 C          63.1125   85.3727   16.8429 C.3     1  UNL1        0.1212
     31 C          62.6503   85.2042   15.4259 C.2     1  UNL1        0.3175
     32 O          61.1941   85.3366   15.0913 O.2     1  UNL1       -0.2501
     33 O          61.9515   90.5168   10.9381 O.3     1  UNL1       -0.4463
     34 C          63.0665   91.4999   10.7368 C.2     1  UNL1        0.3464
     35 O          63.4351   91.9427    9.3519 O.2     1  UNL1       -0.2473
     36 C          63.8128   92.0401   11.9206 C.3     1  UNL1        0.2321
     37 O          63.3214   91.7584   13.3095 O.3     1  UNL1       -0.3729
     38 H          63.9139   92.1772   13.9533 H       1  UNL1        0.2111
     39 C          65.0506   92.8622   11.7153 C.3     1  UNL1        0.1351
     40 C          66.2402   92.6620   12.6068 C.ar    1  UNL1       -0.0015
     41 C          67.4174   91.8701   12.1201 C.ar    1  UNL1       -0.0026
     42 C          68.6070   91.6699   13.0115 C.ar    1  UNL1       -0.0003
     43 C          68.6194   92.2617   14.3899 C.ar    1  UNL1       -0.0000
     44 C          67.4421   93.0536   14.8766 C.ar    1  UNL1       -0.0003
     45 C          66.2525   93.2538   13.9851 C.ar    1  UNL1       -0.0026
     46 N          65.0988   93.8843   10.6185 N.am    1  UNL1       -0.2655
     47 C          65.6127   95.2648   10.9020 C.2     1  UNL1        0.4017
     48 O          66.0784   95.6230   12.2821 O.2     1  UNL1       -0.2264
     49 H          64.7931   93.6492    9.7127 H       1  UNL1        0.1531
     50 O          65.6608   96.2870    9.8052 O.3     1  UNL1       -0.4419
     51 C          66.5028   96.0419    8.5882 C.3     1  UNL1        0.1378
     52 C          67.4671   95.2450    9.4159 C.3     1  UNL1        0.0437
     53 C          65.5386   96.8388    7.7606 C.3     1  UNL1        0.0437
     54 C          67.3448   95.7968    7.3713 C.3     1  UNL1        0.0437
     55 O          63.5091   85.8262   14.5886 O.3     1  UNL1       -0.4466
     56 C          64.6278   86.6916   15.0884 C.2     1  UNL1        0.3412
     57 O          66.0223   86.1443   15.1652 O.2     1  UNL1       -0.2449
     58 C          64.3520   88.1040   15.5112 C.ar    1  UNL1        0.0756
     59 C          65.0868   89.2386   14.8611 C.ar    1  UNL1        0.0064
     60 C          64.8110   90.6510   15.2840 C.ar    1  UNL1        0.0002
     61 C          63.8003   90.9289   16.3570 C.ar    1  UNL1        0.0000
     62 C          63.0655   89.7943   17.0071 C.ar    1  UNL1        0.0002
     63 C          63.3413   88.3819   16.5843 C.ar    1  UNL1        0.0064
@<TRIPOS>BOND
     1    30    31    1
     2    31    32    2
     3    31    29    1
     4     1    29    1
     5     1     2    1
     6     2     3    1
     7     3     4    1
     8     4     5    1
     9     5     6    1
    10     6     7    1
    11     6     8    1
    12     8     9    1
    13     8    10    1
    14    10    11    2
    15    10    12    1
    16    12    13    1
    17    12    14    1
    18    14    15    2
    19    15    16    1
    20    15    17    1
    21    17    33    1
    22    33    34    1
    23    34    35    2
    24    34    36    1
    25    36    37    1
    26    36    39    1
    27    39    46    1
    28    46    47   am
    29    47    48    2
    30    47    50    1
    31    50    51    1
    32    51    52    1
    33    51    53    1
    34    51    54    1
    35    39    40    1
    36    40    41   ar
    37    41    42   ar
    38    42    43   ar
    39    43    44   ar
    40    44    45   ar
    41    17    18    1
    42    18    19    1
    43    19    20    1
    44    19    21    1
    45    21    55    1
    46    55    56    1
    47    56    57    2
    48    56    58    1
    49    58    59   ar
    50    59    60   ar
    51    60    61   ar
    52    61    62   ar
    53    62    63   ar
    54    22    21    1
    55    19    23    1
    56    23    24    1
    57    23    25    1
    58     4     1    1
    59    22     8    1
    60    22     1    1
    61    23    14    1
    62    45    40   ar
    63    63    58   ar
    64     7    26    1
    65    13    27    1
    66    37    38    1
    67    46    49    1
    68    20    28    1
@<TRIPOS>MOLECULE
*****
 63 68 0 0 0
SMALL
GASTEIGER

@<TRIPOS>ATOM
      1 C          63.9124   83.3400   13.5010 C.3     1  UNL1        0.1914
      2 C          64.3324   82.9766   14.8945 C.3     1  UNL1        0.1845
      3 O          64.3607   81.5274   14.5080 O.3     1  UNL1       -0.3487
      4 C          63.9408   81.8909   13.1145 C.3     1  UNL1        0.1567
      5 C          63.5913   81.4811   11.7147 C.3     1  UNL1        0.0629
      6 C          63.2135   82.5203   10.7011 C.3     1  UNL1        0.1198
      7 O          62.8640   82.1105    9.3011 O.3     1  UNL1       -0.3840
      8 C          63.1851   83.9694   11.0876 C.3     1  UNL1        0.0858
      9 C          62.8692   83.3756    9.7468 C.3     1  UNL1        0.0101
     10 C          62.7721   84.6955    9.8417 C.2     1  UNL1        0.1828
     11 O          62.5390   83.7670    8.6868 O.2     1  UNL1       -0.2931
     12 C          62.5376   86.1321    9.4797 C.3     1  UNL1        0.1857
     13 O          62.1250   86.3033    8.0478 O.3     1  UNL1       -0.3734
     14 C          62.6189   87.4377   10.2136 C.2     1  UNL1       -0.0137
     15 C          62.5837   88.9021   10.5806 C.2     1  UNL1       -0.0097
     16 C          62.1848   89.7924    9.4412 C.3     1  UNL1        0.0294
     17 C          62.8995   89.4959   11.9214 C.3     1  UNL1        0.1892
     18 C          63.2983   88.6057   13.0608 C.3     1  UNL1        0.0787
     19 C          63.3813   87.1215   12.8595 C.3     1  UNL1        0.1319
     20 O          63.6144   88.0499   14.0144 O.3     1  UNL1       -0.3828
     21 C          63.6158   85.6848   13.2215 C.3     1  UNL1        0.1976
     22 C          63.5346   84.3792   12.4876 C.3     1  UNL1        0.0929
     23 C          62.9683   87.8476   11.6136 C.3     1  UNL1        0.0433
     24 C          63.0328   88.7901   12.1644 C.3     1  UNL1        0.0066
     25 C          62.7278   89.2769   11.2273 C.3     1  UNL1        0.0066
     26 H          62.6457   82.8980    8.7786 H       1  UNL1        0.2104
     27 H          61.9855   87.2450    7.8618 H       1  UNL1        0.2113
     28 H          63.8783   87.5364   14.7939 H       1  UNL1        0.2104
     29 O          63.9937   84.6456   14.2350 O.3     1  UNL1       -0.4506
     30 C          66.5873   84.4942   14.2217 C.3     1  UNL1        0.1212
     31 C          65.3314   85.2417   14.5594 C.2     1  UNL1        0.3175
     32 O          65.4132   86.5852   15.2215 O.2     1  UNL1       -0.2501
     33 O          62.8166   90.9800   12.1227 O.3     1  UNL1       -0.4463
     34 C          63.9794   91.7233   12.7105 C.2     1  UNL1        0.3464
     35 O          64.1237   91.8335   14.1995 O.2     1  UNL1       -0.2473
     36 C          64.9978   92.3564   11.8093 C.3     1  UNL1        0.2321
     37 O          65.0690   91.9616   10.3640 O.3     1  UNL1       -0.3729
     38 H          65.7762   92.4612    9.9268 H       1  UNL1        0.2111
     39 C          65.9450   93.3843   12.3536 C.3     1  UNL1        0.1351
     40 C          66.8564   93.0357   13.4927 C.ar    1  UNL1       -0.0015
     41 C          67.9141   91.9873   13.3132 C.ar    1  UNL1       -0.0026
     42 C          68.8255   91.6387   14.4523 C.ar    1  UNL1       -0.0003
     43 C          68.6794   92.3384   15.7710 C.ar    1  UNL1       -0.0000
     44 C          67.6217   93.3869   15.9505 C.ar    1  UNL1       -0.0003
     45 C          66.7102   93.7355   14.8114 C.ar    1  UNL1       -0.0026
     46 N          65.9807   94.7609   11.7586 N.am    1  UNL1       -0.2655
     47 C          66.6421   94.9873   10.4314 C.2     1  UNL1        0.4017
     48 O          67.2677   93.8373    9.6993 O.2     1  UNL1       -0.2264
     49 H          65.5701   95.5157   12.2391 H       1  UNL1        0.1531
     50 O          66.6778   96.3638    9.8365 O.3     1  UNL1       -0.4419
     51 C          66.0872   96.6099    8.4797 C.3     1  UNL1        0.1378
     52 C          64.7084   96.5181    9.0634 C.3     1  UNL1        0.0437
     53 C          67.4659   96.7017    7.8962 C.3     1  UNL1        0.0437
     54 C          65.4966   96.8559    7.1231 C.3     1  UNL1        0.0437
     55 O          64.0285   85.5137   14.6534 O.3     1  UNL1       -0.4466
     56 C          62.9870   85.4404   15.7305 C.2     1  UNL1        0.3412
     57 O          61.9837   84.3253   15.7289 O.2     1  UNL1       -0.2449
     58 C          62.9488   86.4821   16.8091 C.ar    1  UNL1        0.0756
     59 C          62.7403   86.0753   18.2377 C.ar    1  UNL1        0.0064
     60 C          62.7022   87.1170   19.3162 C.ar    1  UNL1        0.0002
     61 C          62.8725   88.5656   18.9662 C.ar    1  UNL1        0.0000
     62 C          63.0810   88.9724   17.5375 C.ar    1  UNL1        0.0002
     63 C          63.1192   87.9307   16.4590 C.ar    1  UNL1        0.0064
@<TRIPOS>BOND
     1    30    31    1
     2    31    32    2
     3    31    29    1
     4     1    29    1
     5     1     2    1
     6     2     3    1
     7     3     4    1
     8     4     5    1
     9     5     6    1
    10     6     7    1
    11     6     8    1
    12     8     9    1
    13     8    10    1
    14    10    11    2
    15    10    12    1
    16    12    13    1
    17    12    14    1
    18    14    15    2
    19    15    16    1
    20    15    17    1
    21    17    33    1
    22    33    34    1
    23    34    35    2
    24    34    36    1
    25    36    37    1
    26    36    39    1
    27    39    46    1
    28    46    47   am
    29    47    48    2
    30    47    50    1
    31    50    51    1
    32    51    52    1
    33    51    53    1
    34    51    54    1
    35    39    40    1
    36    40    41   ar
    37    41    42   ar
    38    42    43   ar
    39    43    44   ar
    40    44    45   ar
    41    17    18    1
    42    18    19    1
    43    19    20    1
    44    19    21    1
    45    21    55    1
    46    55    56    1
    47    56    57    2
    48    56    58    1
    49    58    59   ar
    50    59    60   ar
    51    60    61   ar
    52    61    62   ar
    53    62    63   ar
    54    22    21    1
    55    19    23    1
    56    23    24    1
    57    23    25    1
    58     4     1    1
    59    22     8    1
    60    22     1    1
    61    23    14    1
    62    45    40   ar
    63    63    58   ar
    64     7    26    1
    65    13    27    1
    66    37    38    1
    67    46    49    1
    68    20    28    1
@<TRIPOS>MOLECULE
*****
 63 68 0 0 0
SMALL
GASTEIGER

@<TRIPOS>ATOM
      1 C          62.8473   83.7289   10.8721 C.3     1  UNL1        0.1914
      2 C          62.4285   83.5274    9.4459 C.3     1  UNL1        0.1845
      3 O          62.5432   82.0421    9.6221 O.3     1  UNL1       -0.3487
      4 C          62.9621   82.2437   11.0483 C.3     1  UNL1        0.1567
      5 C          63.3821   81.6756   12.3714 C.3     1  UNL1        0.0629
      6 C          63.6875   82.5927   13.5185 C.3     1  UNL1        0.1198
      7 O          64.1076   82.0246   14.8417 O.3     1  UNL1       -0.3840
      8 C          63.5728   84.0780   13.3423 C.3     1  UNL1        0.0858
      9 C          63.9749   83.3337   14.5810 C.3     1  UNL1        0.0101
     10 C          63.9477   84.6570   14.6743 C.2     1  UNL1        0.1828
     11 O          64.2937   83.6014   15.6822 O.2     1  UNL1       -0.2931
     12 C          64.0578   86.0440   15.2348 C.3     1  UNL1        0.1857
     13 O          64.4880   86.0499   16.6717 O.3     1  UNL1       -0.3734
     14 C          63.8386   87.4264   14.6955 C.2     1  UNL1       -0.0137
     15 C          63.7297   88.9245   14.5407 C.2     1  UNL1       -0.0097
     16 C          64.0728   89.6791   15.7908 C.3     1  UNL1        0.0294
     17 C          63.3276   89.6688   13.3020 C.3     1  UNL1        0.1892
     18 C          62.9845   88.9142   12.0518 C.3     1  UNL1        0.0787
     19 C          63.0436   87.4154   12.0403 C.3     1  UNL1        0.1319
     20 O          62.6976   88.4710   11.0323 O.3     1  UNL1       -0.3828
     21 C          62.9335   86.0284   11.4798 C.3     1  UNL1        0.1976
     22 C          63.1527   84.6460   12.0191 C.3     1  UNL1        0.0929
     23 C          63.4185   87.9945   13.3723 C.3     1  UNL1        0.0433
     24 C          63.2539   88.9948   12.9623 C.3     1  UNL1        0.0066
     25 C          63.5358   89.3714   13.9557 C.3     1  UNL1        0.0066
     26 H          64.2653   82.7478   15.4686 H       1  UNL1        0.2104
     27 H          64.5447   86.9650   16.9884 H       1  UNL1        0.2113
     28 H          62.4630   88.0498   10.1906 H       1  UNL1        0.2104
     29 O          62.6281   85.1113   10.3329 O.3     1  UNL1       -0.4506
     30 C          63.3622   84.4595    7.9274 C.3     1  UNL1        0.1212
     31 C          63.1984   85.4955    8.9997 C.2     1  UNL1        0.3175
     32 O          63.6047   86.9156    8.7389 O.2     1  UNL1       -0.2501
     33 O          63.2685   91.1675   13.3134 O.3     1  UNL1       -0.4463
     34 C          64.4972   91.9641   13.6389 C.2     1  UNL1        0.3464
     35 O          64.9575   92.0853   15.0614 O.2     1  UNL1       -0.2473
     36 C          65.2656   92.6393   12.5418 C.3     1  UNL1        0.2321
     37 O          64.9807   92.3011   11.1085 O.3     1  UNL1       -0.3729
     38 H          65.5606   92.8227   10.5318 H       1  UNL1        0.2111
     39 C          66.3190   93.6529   12.8781 C.3     1  UNL1        0.1351
     40 C          67.3674   93.3335   13.9022 C.ar    1  UNL1       -0.0015
     41 C          68.1716   92.0729   13.7842 C.ar    1  UNL1       -0.0026
     42 C          69.2200   91.7535   14.8083 C.ar    1  UNL1       -0.0003
     43 C          69.4642   92.6947   15.9505 C.ar    1  UNL1       -0.0000
     44 C          68.6598   93.9554   16.0685 C.ar    1  UNL1       -0.0003
     45 C          67.6115   94.2748   15.0444 C.ar    1  UNL1       -0.0026
     46 N          66.3239   94.9860   12.1902 N.am    1  UNL1       -0.2655
     47 C          66.8676   95.1092   10.7976 C.2     1  UNL1        0.4017
     48 O          67.4064   93.8996   10.0930 O.2     1  UNL1       -0.2264
     49 H          65.9703   95.7799   12.6527 H       1  UNL1        0.1531
     50 O          66.8726   96.4422   10.1097 O.3     1  UNL1       -0.4419
     51 C          66.0583   96.6476    8.8668 C.3     1  UNL1        0.1378
     52 C          64.8224   96.8038    9.7024 C.3     1  UNL1        0.0437
     53 C          67.2942   96.4915    8.0313 C.3     1  UNL1        0.0437
     54 C          65.2440   96.8531    7.6240 C.3     1  UNL1        0.0437
     55 O          62.5033   86.0225   10.0429 O.3     1  UNL1       -0.4466
     56 C          61.1116   86.4444    9.6748 C.2     1  UNL1        0.3412
     57 O          60.2761   85.5756    8.7820 O.2     1  UNL1       -0.2449
     58 C          60.5556   87.7349   10.1995 C.ar    1  UNL1        0.0756
     59 C          60.6622   88.9861    9.3791 C.ar    1  UNL1        0.0064
     60 C          60.1063   90.2766    9.9038 C.ar    1  UNL1        0.0002
     61 C          59.4436   90.3159   11.2490 C.ar    1  UNL1        0.0000
     62 C          59.3370   89.0647   12.0694 C.ar    1  UNL1        0.0002
     63 C          59.8930   87.7742   11.5447 C.ar    1  UNL1        0.0064
@<TRIPOS>BOND
     1    30    31    1
     2    31    32    2
     3    31    29    1
     4     1    29    1
     5     1     2    1
     6     2     3    1
     7     3     4    1
     8     4     5    1
     9     5     6    1
    10     6     7    1
    11     6     8    1
    12     8     9    1
    13     8    10    1
    14    10    11    2
    15    10    12    1
    16    12    13    1
    17    12    14    1
    18    14    15    2
    19    15    16    1
    20    15    17    1
    21    17    33    1
    22    33    34    1
    23    34    35    2
    24    34    36    1
    25    36    37    1
    26    36    39    1
    27    39    46    1
    28    46    47   am
    29    47    48    2
    30    47    50    1
    31    50    51    1
    32    51    52    1
    33    51    53    1
    34    51    54    1
    35    39    40    1
    36    40    41   ar
    37    41    42   ar
    38    42    43   ar
    39    43    44   ar
    40    44    45   ar
    41    17    18    1
    42    18    19    1
    43    19    20    1
    44    19    21    1
    45    21    55    1
    46    55    56    1
    47    56    57    2
    48    56    58    1
    49    58    59   ar
    50    59    60   ar
    51    60    61   ar
    52    61    62   ar
    53    62    63   ar
    54    22    21    1
    55    19    23    1
    56    23    24    1
    57    23    25    1
    58     4     1    1
    59    22     8    1
    60    22     1    1
    61    23    14    1
    62    45    40   ar
    63    63    58   ar
    64     7    26    1
    65    13    27    1
    66    37    38    1
    67    46    49    1
    68    20    28    1
