@<TRIPOS>MOLECULE
*****
 65 71 0 0 0
SMALL
GASTEIGER

@<TRIPOS>ATOM
      1 N          65.7937   89.9162   13.9956 N.3     1  UNL1       -0.1862
      2 C          66.2316   88.7354   14.8105 C.3     1  UNL1        0.1775
      3 C          65.4297   87.4680   14.7854 C.2     1  UNL1        0.2452
      4 O          65.8675   86.2872   15.6003 O.2     1  UNL1       -0.2732
      5 N          64.1899   87.3814   13.9455 N.am    1  UNL1       -0.2541
      6 C          63.7521   88.5621   13.1306 C.3     1  UNL1        0.1908
      7 C          62.5123   88.4755   12.2906 C.3     1  UNL1        0.1359
      8 N          61.7104   87.2081   12.2656 N.am    1  UNL1       -0.2705
      9 C          62.1483   86.0273   13.0805 C.2     1  UNL1        0.2445
     10 O          61.3464   84.7599   13.0554 O.2     1  UNL1       -0.2731
     11 C          63.3880   86.1139   13.9204 C.3     1  UNL1        0.1577
     12 N          64.5540   89.8295   13.1557 N.am    1  UNL1       -0.1863
     13 C          64.1161   91.0104   12.3408 C.2     1  UNL1        0.3191
     14 O          62.8764   90.9237   11.5008 O.2     1  UNL1       -0.2512
     15 N          64.9181   92.2778   12.3658 N.am    1  UNL1       -0.2836
     16 H          65.7317   92.3346   12.9171 H       1  UNL1        0.1513
     17 C          66.5957   91.1836   14.0207 C.3     1  UNL1        0.1188
     18 C          67.3291   92.7462   15.9624 C.2     1  UNL1       -0.0034
     19 C          67.4990   91.4767   15.1817 C.2     1  UNL1       -0.0071
     20 C          60.4707   87.1215   11.4256 C.3     1  UNL1        0.1217
     21 C          60.5713   87.1907    9.9306 C.ar    1  UNL1        0.0135
     22 C          61.0346   85.9940    9.1539 C.ar    1  UNL1       -0.0012
     23 C          61.1353   86.0630    7.6589 C.ar    1  UNL1       -0.0002
     24 C          60.7725   87.3289    6.9406 C.ar    1  UNL1        0.0016
     25 C          60.3092   88.5256    7.7172 C.ar    1  UNL1        0.0214
     26 C          59.8867   89.8991    7.2872 C.ar    1  UNL1        0.0722
     27 C          59.5249   90.6789    8.5165 C.ar    1  UNL1        0.0805
     28 N          59.7239   89.7873    9.7061 N.ar    1  UNL1       -0.3241
     29 C          59.4808   90.1609   11.1384 C.3     1  UNL1        0.1305
     30 C          60.2085   88.4565    9.2122 C.ar    1  UNL1        0.0577
     31 C          59.8350   90.4042    5.8757 C.2     1  UNL1        0.2510
     32 O          58.6591   90.0758    5.0042 O.2     1  UNL1       -0.2698
     33 N          60.9591   91.2377    5.3357 N.am    1  UNL1       -0.2791
     34 H          61.7309   91.4532    5.9077 H       1  UNL1        0.1552
     35 C          60.9075   91.7428    3.9243 C.ar    1  UNL1        0.0701
     36 C          62.0918   91.5661    3.0208 C.ar    1  UNL1        0.0191
     37 C          62.0402   92.0711    1.6093 C.ar    1  UNL1        0.0354
     38 C          60.8044   92.7529    1.1014 C.ar    1  UNL1        0.1287
     39 N          59.6202   92.9296    2.0049 N.ar    1  UNL1       -0.2281
     40 C          59.6717   92.4245    3.4164 C.ar    1  UNL1        0.1149
     41 N          60.7528   93.2580   -0.3100 N.pl3   1  UNL1       -0.3160
     42 H          61.4120   93.9201   -0.6203 H       1  UNL1        0.1483
     43 C          59.6968   92.7543   -1.2488 C.3     1  UNL1        0.1204
     44 C          58.2534   93.0740   -0.9952 C.3     1  UNL1        0.1591
     45 O          57.2451   91.9673   -0.9025 O.3     1  UNL1       -0.3802
     46 H          57.6891   91.1141   -1.0284 H       1  UNL1        0.2105
     47 C          57.8183   94.5005   -0.8343 C.3     1  UNL1        0.1680
     48 O          58.4807   95.3758    0.1879 O.3     1  UNL1       -0.3795
     49 H          58.2800   95.0436    1.0769 H       1  UNL1        0.2105
     50 C          63.8258   84.9332   14.7352 C.3     1  UNL1        0.0556
     51 C          63.4935   83.5431   14.2801 C.ar    1  UNL1       -0.0198
     52 C          62.3437   82.8057   14.9000 C.ar    1  UNL1       -0.0011
     53 C          62.0114   81.4156   14.4448 C.ar    1  UNL1        0.0363
     54 C          62.8288   80.7629   13.3698 C.ar    1  UNL1        0.1337
     55 O          62.4964   79.3728   12.9146 O.3     1  UNL1       -0.5055
     56 C          63.9786   81.5003   12.7498 C.ar    1  UNL1        0.0363
     57 C          64.3109   82.8904   13.2050 C.ar    1  UNL1       -0.0011
     58 H          61.7782   78.9122   13.3018 H       1  UNL1        0.2922
     59 C          64.4802   93.4585   11.5510 C.3     1  UNL1        0.1177
     60 C          65.4580   94.1511   10.6485 C.ar    1  UNL1       -0.0025
     61 C          65.3221   95.6210   10.3827 C.ar    1  UNL1       -0.0026
     62 C          66.2998   96.3135    9.4803 C.ar    1  UNL1       -0.0003
     63 C          67.4135   95.5361    8.8436 C.ar    1  UNL1       -0.0000
     64 C          67.5495   94.0661    9.1095 C.ar    1  UNL1       -0.0003
     65 C          66.5717   93.3735   10.0119 C.ar    1  UNL1       -0.0026
@<TRIPOS>BOND
     1    18    19    2
     2    19    17    1
     3    17     1    1
     4     1     2    1
     5     2     3    1
     6     3     4    2
     7     3     5   am
     8     5     6    1
     9     6     7    1
    10     7     8    1
    11     8    20    1
    12    20    21    1
    13    21    22   ar
    14    22    23   ar
    15    23    24   ar
    16    24    25   ar
    17    25    26   ar
    18    26    31    1
    19    31    32    2
    20    31    33   am
    21    33    35    1
    22    35    36   ar
    23    36    37   ar
    24    37    38   ar
    25    38    41    1
    26    41    43    1
    27    43    44    1
    28    44    45    1
    29    44    47    1
    30    47    48    1
    31    38    39   ar
    32    39    40   ar
    33    26    27   ar
    34    27    28   ar
    35    28    29    1
    36    28    30   ar
    37     8     9   am
    38     9    10    2
    39     9    11    1
    40    11    50    1
    41    50    51    1
    42    51    52   ar
    43    52    53   ar
    44    53    54   ar
    45    54    55    1
    46    54    56   ar
    47    56    57   ar
    48     6    12    1
    49    12    13   am
    50    13    14    2
    51    13    15   am
    52    15    59    1
    53    59    60    1
    54    60    61   ar
    55    61    62   ar
    56    62    63   ar
    57    63    64   ar
    58    64    65   ar
    59    12     1    1
    60    65    60   ar
    61    11     5    1
    62    57    51   ar
    63    30    21   ar
    64    30    25   ar
    65    40    35   ar
    66    33    34    1
    67    41    42    1
    68    45    46    1
    69    48    49    1
    70    55    58    1
    71    15    16    1
@<TRIPOS>MOLECULE
*****
 65 71 0 0 0
SMALL
GASTEIGER

@<TRIPOS>ATOM
      1 N          65.6183   89.8931   13.9221 N.3     1  UNL1       -0.1862
      2 C          66.0347   88.7453   14.7933 C.3     1  UNL1        0.1775
      3 C          65.2419   87.4719   14.7859 C.2     1  UNL1        0.2452
      4 O          65.6583   86.3241   15.6572 O.2     1  UNL1       -0.2732
      5 N          64.0326   87.3465   13.9073 N.am    1  UNL1       -0.2541
      6 C          63.6162   88.4943   13.0361 C.3     1  UNL1        0.1908
      7 C          62.4069   88.3689   12.1575 C.3     1  UNL1        0.1359
      8 N          61.6141   87.0956   12.1501 N.am    1  UNL1       -0.2705
      9 C          62.0305   85.9477   13.0214 C.2     1  UNL1        0.2445
     10 O          61.2377   84.6744   13.0140 O.2     1  UNL1       -0.2731
     11 C          63.2398   86.0732   13.8999 C.3     1  UNL1        0.1577
     12 N          64.4091   89.7676   13.0435 N.am    1  UNL1       -0.1863
     13 C          63.9926   90.9155   12.1722 C.2     1  UNL1        0.3191
     14 O          62.7834   90.7900   11.2937 O.2     1  UNL1       -0.2512
     15 N          64.7855   92.1888   12.1796 N.am    1  UNL1       -0.2836
     16 H          65.5792   92.2712   12.7563 H       1  UNL1        0.1513
     17 C          66.4112   91.1664   13.9294 C.3     1  UNL1        0.1188
     18 C          67.2386   93.2119   15.3010 C.2     1  UNL1       -0.0034
     19 C          66.8620   91.7617   15.2303 C.2     1  UNL1       -0.0071
     20 C          60.4048   86.9701   11.2715 C.3     1  UNL1        0.1217
     21 C          60.5448   87.0830    9.7823 C.ar    1  UNL1        0.0135
     22 C          60.9965   85.8991    8.9796 C.ar    1  UNL1       -0.0012
     23 C          61.1364   86.0120    7.4904 C.ar    1  UNL1       -0.0002
     24 C          60.8246   87.3087    6.8040 C.ar    1  UNL1        0.0016
     25 C          60.3729   88.4926    7.6067 C.ar    1  UNL1        0.0214
     26 C          59.9968   89.8896    7.2104 C.ar    1  UNL1        0.0722
     27 C          59.6245   90.6400    8.4546 C.ar    1  UNL1        0.0805
     28 N          59.7704   89.7069    9.6199 N.ar    1  UNL1       -0.3241
     29 C          59.5011   90.0421   11.0569 C.3     1  UNL1        0.1305
     30 C          60.2329   88.3797    9.0959 C.ar    1  UNL1        0.0577
     31 C          59.9937   90.4395    5.8148 C.2     1  UNL1        0.2510
     32 O          58.7765   90.2872    4.9514 O.2     1  UNL1       -0.2698
     33 N          61.2076   91.1417    5.2826 N.am    1  UNL1       -0.2791
     34 H          62.0065   91.2416    5.8493 H       1  UNL1        0.1552
     35 C          61.2046   91.6916    3.8871 C.ar    1  UNL1        0.0701
     36 C          60.0646   92.5478    3.4210 C.ar    1  UNL1        0.0191
     37 C          60.0614   93.0978    2.0254 C.ar    1  UNL1        0.0354
     38 C          61.1982   92.7915    1.0961 C.ar    1  UNL1        0.1287
     39 N          62.3382   91.9353    1.5622 N.ar    1  UNL1       -0.2281
     40 C          62.3414   91.3853    2.9577 C.ar    1  UNL1        0.1149
     41 N          61.1952   93.3415   -0.2995 N.pl3   1  UNL1       -0.3160
     42 H          60.5073   93.0514   -0.9413 H       1  UNL1        0.1483
     43 C          62.2401   94.3334   -0.7170 C.3     1  UNL1        0.1204
     44 C          63.6521   93.8830   -0.9481 C.3     1  UNL1        0.1591
     45 O          64.0479   93.3073   -2.2755 O.3     1  UNL1       -0.3802
     46 H          63.2786   93.2977   -2.8661 H       1  UNL1        0.2105
     47 C          64.6682   94.0083    0.1481 C.3     1  UNL1        0.1680
     48 O          65.6015   92.8707    0.4391 O.3     1  UNL1       -0.3795
     49 H          65.0948   92.1140    0.7731 H       1  UNL1        0.2105
     50 C          63.6562   84.9253   14.7711 C.3     1  UNL1        0.0556
     51 C          63.3704   83.5165   14.3428 C.ar    1  UNL1       -0.0198
     52 C          62.1758   82.7936   14.8909 C.ar    1  UNL1       -0.0011
     53 C          61.8900   81.3848   14.4626 C.ar    1  UNL1        0.0363
     54 C          62.7989   80.6987   13.4862 C.ar    1  UNL1        0.1337
     55 O          62.5131   79.2899   13.0579 O.3     1  UNL1       -0.5055
     56 C          63.9935   81.4216   12.9381 C.ar    1  UNL1        0.0363
     57 C          64.2793   82.8304   13.3664 C.ar    1  UNL1       -0.0011
     58 H          61.7669   78.8384   13.4002 H       1  UNL1        0.2922
     59 C          64.3691   93.3367   11.3084 C.3     1  UNL1        0.1177
     60 C          65.4027   94.1180   10.5526 C.ar    1  UNL1       -0.0025
     61 C          66.5681   93.4109    9.9267 C.ar    1  UNL1       -0.0026
     62 C          67.6016   94.1923    9.1709 C.ar    1  UNL1       -0.0003
     63 C          67.4697   95.6808    9.0410 C.ar    1  UNL1       -0.0000
     64 C          66.3043   96.3880    9.6669 C.ar    1  UNL1       -0.0003
     65 C          65.2707   95.6066   10.4227 C.ar    1  UNL1       -0.0026
@<TRIPOS>BOND
     1    18    19    2
     2    19    17    1
     3    17     1    1
     4     1     2    1
     5     2     3    1
     6     3     4    2
     7     3     5   am
     8     5     6    1
     9     6     7    1
    10     7     8    1
    11     8    20    1
    12    20    21    1
    13    21    22   ar
    14    22    23   ar
    15    23    24   ar
    16    24    25   ar
    17    25    26   ar
    18    26    31    1
    19    31    32    2
    20    31    33   am
    21    33    35    1
    22    35    36   ar
    23    36    37   ar
    24    37    38   ar
    25    38    41    1
    26    41    43    1
    27    43    44    1
    28    44    45    1
    29    44    47    1
    30    47    48    1
    31    38    39   ar
    32    39    40   ar
    33    26    27   ar
    34    27    28   ar
    35    28    29    1
    36    28    30   ar
    37     8     9   am
    38     9    10    2
    39     9    11    1
    40    11    50    1
    41    50    51    1
    42    51    52   ar
    43    52    53   ar
    44    53    54   ar
    45    54    55    1
    46    54    56   ar
    47    56    57   ar
    48     6    12    1
    49    12    13   am
    50    13    14    2
    51    13    15   am
    52    15    59    1
    53    59    60    1
    54    60    61   ar
    55    61    62   ar
    56    62    63   ar
    57    63    64   ar
    58    64    65   ar
    59    12     1    1
    60    65    60   ar
    61    11     5    1
    62    57    51   ar
    63    30    21   ar
    64    30    25   ar
    65    40    35   ar
    66    33    34    1
    67    41    42    1
    68    45    46    1
    69    48    49    1
    70    55    58    1
    71    15    16    1
@<TRIPOS>MOLECULE
*****
 65 71 0 0 0
SMALL
GASTEIGER

@<TRIPOS>ATOM
      1 N          64.5682   83.1871   13.2564 N.3     1  UNL1       -0.1862
      2 C          65.1997   84.0701   14.2914 C.3     1  UNL1        0.1775
      3 C          64.7841   85.5069   14.4060 C.2     1  UNL1        0.2452
      4 O          65.4156   86.3900   15.4412 O.2     1  UNL1       -0.2732
      5 N          63.7372   86.0605   13.4856 N.am    1  UNL1       -0.2541
      6 C          63.1057   85.1774   12.4505 C.3     1  UNL1        0.1908
      7 C          62.0587   85.7311   11.5300 C.3     1  UNL1        0.1359
      8 N          61.6431   87.1678   11.6446 N.am    1  UNL1       -0.2705
      9 C          62.2746   88.0509   12.6798 C.2     1  UNL1        0.2445
     10 O          61.8591   89.4876   12.7944 O.2     1  UNL1       -0.2731
     11 C          63.3216   87.4973   13.6002 C.3     1  UNL1        0.1577
     12 N          63.5212   83.7407   12.3359 N.am    1  UNL1       -0.1863
     13 C          62.8897   82.8576   11.3008 C.2     1  UNL1        0.3191
     14 O          61.8427   83.4113   10.3804 O.2     1  UNL1       -0.2512
     15 N          63.3052   81.4209   11.1862 N.am    1  UNL1       -0.2836
     16 H          63.9924   81.0575   11.7903 H       1  UNL1        0.1513
     17 C          64.9837   81.7503   13.1417 C.3     1  UNL1        0.1188
     18 C          62.8177   80.7949   14.2120 C.2     1  UNL1       -0.0034
     19 C          64.2942   80.7023   13.9639 C.2     1  UNL1       -0.0071
     20 C          60.5961   87.7215   10.7242 C.3     1  UNL1        0.1217
     21 C          60.9324   88.8554    9.8016 C.ar    1  UNL1        0.0135
     22 C          61.9746   89.8594   10.1960 C.ar    1  UNL1       -0.0012
     23 C          62.3109   90.9934    9.2735 C.ar    1  UNL1       -0.0002
     24 C          61.6048   91.1233    7.9565 C.ar    1  UNL1        0.0016
     25 C          60.5625   90.1192    7.5620 C.ar    1  UNL1        0.0214
     26 C          59.7064   89.9897    6.3372 C.ar    1  UNL1        0.0722
     27 C          58.8411   88.7757    6.5027 C.ar    1  UNL1        0.0805
     28 N          59.1624   88.1550    7.8299 N.ar    1  UNL1       -0.3241
     29 C          58.5307   86.9206    8.4019 C.3     1  UNL1        0.1305
     30 C          60.2263   88.9853    8.4846 C.ar    1  UNL1        0.0577
     31 C          59.7143   90.9122    5.1543 C.2     1  UNL1        0.2510
     32 O          58.4227   91.4529    4.6163 O.2     1  UNL1       -0.2698
     33 N          61.0137   91.2941    4.5096 N.am    1  UNL1       -0.2791
     34 H          61.8614   90.9392    4.8628 H       1  UNL1        0.1552
     35 C          61.0217   92.2165    3.3269 C.ar    1  UNL1        0.0701
     36 C          62.2079   92.2494    2.4094 C.ar    1  UNL1        0.0191
     37 C          62.2159   93.1718    1.2266 C.ar    1  UNL1        0.0354
     38 C          61.0377   94.0614    0.9613 C.ar    1  UNL1        0.1287
     39 N          59.8515   94.0286    1.8788 N.ar    1  UNL1       -0.2281
     40 C          59.8435   93.1062    3.0616 C.ar    1  UNL1        0.1149
     41 N          61.0457   94.9839   -0.2214 N.pl3   1  UNL1       -0.3160
     42 H          61.7014   95.7166   -0.2698 H       1  UNL1        0.1483
     43 C          60.0544   94.7900   -1.3305 C.3     1  UNL1        0.1204
     44 C          58.6626   94.3249   -1.0197 C.3     1  UNL1        0.1591
     45 O          57.6769   95.2703   -0.3996 O.3     1  UNL1       -0.3802
     46 H          58.0973   96.1343   -0.2664 H       1  UNL1        0.2105
     47 C          58.2566   92.9145   -1.3292 C.3     1  UNL1        0.1680
     48 O          57.2022   92.2393   -0.5031 O.3     1  UNL1       -0.3795
     49 H          57.5285   92.1194    0.4025 H       1  UNL1        0.2105
     50 C          63.9531   88.3803   14.6353 C.3     1  UNL1        0.0556
     51 C          64.6301   89.6537   14.2227 C.ar    1  UNL1       -0.0198
     52 C          65.7921   90.1759   15.0146 C.ar    1  UNL1       -0.0011
     53 C          66.4692   91.4492   14.6021 C.ar    1  UNL1        0.0363
     54 C          65.9843   92.2004   13.3977 C.ar    1  UNL1        0.1337
     55 O          66.6614   93.4737   12.9851 O.3     1  UNL1       -0.5055
     56 C          64.8223   91.6782   12.6057 C.ar    1  UNL1        0.0363
     57 C          64.1452   90.4048   13.0183 C.ar    1  UNL1       -0.0011
     58 H          67.3872   93.7999   13.4798 H       1  UNL1        0.2922
     59 C          62.6738   80.5378   10.1511 C.3     1  UNL1        0.1177
     60 C          63.0698   79.0943   10.0542 C.ar    1  UNL1       -0.0025
     61 C          64.0244   78.6485    8.9865 C.ar    1  UNL1       -0.0026
     62 C          64.4204   77.2050    8.8895 C.ar    1  UNL1       -0.0003
     63 C          63.8619   76.2072    9.8603 C.ar    1  UNL1       -0.0000
     64 C          62.9073   76.6530   10.9281 C.ar    1  UNL1       -0.0003
     65 C          62.5112   78.0965   11.0250 C.ar    1  UNL1       -0.0026
@<TRIPOS>BOND
     1    18    19    2
     2    19    17    1
     3    17     1    1
     4     1     2    1
     5     2     3    1
     6     3     4    2
     7     3     5   am
     8     5     6    1
     9     6     7    1
    10     7     8    1
    11     8    20    1
    12    20    21    1
    13    21    22   ar
    14    22    23   ar
    15    23    24   ar
    16    24    25   ar
    17    25    26   ar
    18    26    31    1
    19    31    32    2
    20    31    33   am
    21    33    35    1
    22    35    36   ar
    23    36    37   ar
    24    37    38   ar
    25    38    41    1
    26    41    43    1
    27    43    44    1
    28    44    45    1
    29    44    47    1
    30    47    48    1
    31    38    39   ar
    32    39    40   ar
    33    26    27   ar
    34    27    28   ar
    35    28    29    1
    36    28    30   ar
    37     8     9   am
    38     9    10    2
    39     9    11    1
    40    11    50    1
    41    50    51    1
    42    51    52   ar
    43    52    53   ar
    44    53    54   ar
    45    54    55    1
    46    54    56   ar
    47    56    57   ar
    48     6    12    1
    49    12    13   am
    50    13    14    2
    51    13    15   am
    52    15    59    1
    53    59    60    1
    54    60    61   ar
    55    61    62   ar
    56    62    63   ar
    57    63    64   ar
    58    64    65   ar
    59    12     1    1
    60    65    60   ar
    61    11     5    1
    62    57    51   ar
    63    30    21   ar
    64    30    25   ar
    65    40    35   ar
    66    33    34    1
    67    41    42    1
    68    45    46    1
    69    48    49    1
    70    55    58    1
    71    15    16    1
@<TRIPOS>MOLECULE
*****
 65 71 0 0 0
SMALL
GASTEIGER

@<TRIPOS>ATOM
      1 N          63.8977   90.0170   12.1181 N.3     1  UNL1       -0.1862
      2 C          63.6300   88.6132   12.5736 C.3     1  UNL1        0.1775
      3 C          62.6272   87.7671   11.8466 C.2     1  UNL1        0.2452
      4 O          62.3596   86.3632   12.3022 O.2     1  UNL1       -0.2732
      5 N          61.8921   88.3249   10.6640 N.am    1  UNL1       -0.2541
      6 C          62.1598   89.7287   10.2085 C.3     1  UNL1        0.1908
      7 C          61.4247   90.2865    9.0259 C.3     1  UNL1        0.1359
      8 N          60.4219   89.4405    8.2989 N.am    1  UNL1       -0.2705
      9 C          60.1542   88.0366    8.7544 C.2     1  UNL1        0.2445
     10 O          59.1515   87.1905    8.0274 O.2     1  UNL1       -0.2731
     11 C          60.8893   87.4788    9.9370 C.3     1  UNL1        0.1577
     12 N          63.1626   90.5748   10.9356 N.am    1  UNL1       -0.1863
     13 C          63.4303   91.9787   10.4800 C.2     1  UNL1        0.3191
     14 O          62.6952   92.5364    9.2974 O.2     1  UNL1       -0.2512
     15 N          64.4331   92.8248   11.2070 N.am    1  UNL1       -0.2836
     16 H          64.9155   92.4587   11.9832 H       1  UNL1        0.1513
     17 C          64.9005   90.8631   12.8451 C.3     1  UNL1        0.1188
     18 C          64.3397   91.0787   15.3728 C.2     1  UNL1       -0.0034
     19 C          65.2306   90.5697   14.2786 C.2     1  UNL1       -0.0071
     20 C          59.6868   89.9982    7.1163 C.3     1  UNL1        0.1217
     21 C          60.4516   90.5426    5.9463 C.ar    1  UNL1        0.0135
     22 C          61.9415   90.3802    5.8831 C.ar    1  UNL1       -0.0012
     23 C          62.7062   90.9245    4.7132 C.ar    1  UNL1       -0.0002
     24 C          61.9812   91.6312    3.6064 C.ar    1  UNL1        0.0016
     25 C          60.4913   91.7935    3.6696 C.ar    1  UNL1        0.0214
     26 C          59.5115   92.4388    2.7351 C.ar    1  UNL1        0.0722
     27 C          58.1411   92.2934    3.3275 C.ar    1  UNL1        0.0805
     28 N          58.2740   91.5581    4.6280 N.ar    1  UNL1       -0.3241
     29 C          57.1515   91.1955    5.5546 C.3     1  UNL1        0.1305
     30 C          59.7265   91.2492    4.8396 C.ar    1  UNL1        0.0577
     31 C          59.8437   93.1116    1.4361 C.2     1  UNL1        0.2510
     32 O          59.4558   94.5432    1.2123 O.2     1  UNL1       -0.2698
     33 N          60.5637   92.3527    0.3611 N.am    1  UNL1       -0.2791
     34 H          60.8183   91.4131    0.5081 H       1  UNL1        0.1552
     35 C          60.8960   93.0253   -0.9378 C.ar    1  UNL1        0.0701
     36 C          59.8547   93.1384   -2.0115 C.ar    1  UNL1        0.0191
     37 C          60.1869   93.8110   -3.3105 C.ar    1  UNL1        0.0354
     38 C          61.5602   94.3706   -3.5356 C.ar    1  UNL1        0.1287
     39 N          62.6015   94.2575   -2.4618 N.ar    1  UNL1       -0.2281
     40 C          62.2693   93.5849   -1.1629 C.ar    1  UNL1        0.1149
     41 N          61.8925   95.0432   -4.8345 N.pl3   1  UNL1       -0.3160
     42 H          61.2435   95.6541   -5.2526 H       1  UNL1        0.1483
     43 C          63.2136   94.7850   -5.4964 C.3     1  UNL1        0.1204
     44 C          63.5101   93.4344   -6.0777 C.3     1  UNL1        0.1591
     45 O          63.0173   93.0841   -7.4504 O.3     1  UNL1       -0.3802
     46 H          62.5289   93.8361   -7.8203 H       1  UNL1        0.2105
     47 C          64.2995   92.4341   -5.2862 C.3     1  UNL1        0.1680
     48 O          64.6774   92.7319   -3.8655 O.3     1  UNL1       -0.3795
     49 H          65.2955   93.4792   -3.8452 H       1  UNL1        0.2105
     50 C          60.6217   86.0750   10.3925 C.3     1  UNL1        0.0556
     51 C          61.7120   85.0466   10.3336 C.ar    1  UNL1       -0.0198
     52 C          61.8178   84.0034   11.4062 C.ar    1  UNL1       -0.0011
     53 C          62.9082   82.9750   11.3473 C.ar    1  UNL1        0.0363
     54 C          63.8928   82.9898   10.2158 C.ar    1  UNL1        0.1337
     55 O          64.9832   81.9613   10.1569 O.3     1  UNL1       -0.5055
     56 C          63.7870   84.0330    9.1432 C.ar    1  UNL1        0.0363
     57 C          62.6967   85.0614    9.2021 C.ar    1  UNL1       -0.0011
     58 H          65.0492   81.3097   10.8270 H       1  UNL1        0.2922
     59 C          64.7007   94.2286   10.7515 C.3     1  UNL1        0.1177
     60 C          65.9028   94.5261    9.9049 C.ar    1  UNL1       -0.0025
     61 C          66.0741   95.8868    9.2974 C.ar    1  UNL1       -0.0026
     62 C          67.2761   96.1842    8.4509 C.ar    1  UNL1       -0.0003
     63 C          68.3068   95.1210    8.2118 C.ar    1  UNL1       -0.0000
     64 C          68.1355   93.7603    8.8193 C.ar    1  UNL1       -0.0003
     65 C          66.9335   93.4628    9.6659 C.ar    1  UNL1       -0.0026
@<TRIPOS>BOND
     1    18    19    2
     2    19    17    1
     3    17     1    1
     4     1     2    1
     5     2     3    1
     6     3     4    2
     7     3     5   am
     8     5     6    1
     9     6     7    1
    10     7     8    1
    11     8    20    1
    12    20    21    1
    13    21    22   ar
    14    22    23   ar
    15    23    24   ar
    16    24    25   ar
    17    25    26   ar
    18    26    31    1
    19    31    32    2
    20    31    33   am
    21    33    35    1
    22    35    36   ar
    23    36    37   ar
    24    37    38   ar
    25    38    41    1
    26    41    43    1
    27    43    44    1
    28    44    45    1
    29    44    47    1
    30    47    48    1
    31    38    39   ar
    32    39    40   ar
    33    26    27   ar
    34    27    28   ar
    35    28    29    1
    36    28    30   ar
    37     8     9   am
    38     9    10    2
    39     9    11    1
    40    11    50    1
    41    50    51    1
    42    51    52   ar
    43    52    53   ar
    44    53    54   ar
    45    54    55    1
    46    54    56   ar
    47    56    57   ar
    48     6    12    1
    49    12    13   am
    50    13    14    2
    51    13    15   am
    52    15    59    1
    53    59    60    1
    54    60    61   ar
    55    61    62   ar
    56    62    63   ar
    57    63    64   ar
    58    64    65   ar
    59    12     1    1
    60    65    60   ar
    61    11     5    1
    62    57    51   ar
    63    30    21   ar
    64    30    25   ar
    65    40    35   ar
    66    33    34    1
    67    41    42    1
    68    45    46    1
    69    48    49    1
    70    55    58    1
    71    15    16    1
@<TRIPOS>MOLECULE
*****
 65 71 0 0 0
SMALL
GASTEIGER

@<TRIPOS>ATOM
      1 N          64.5219   83.1788   13.2868 N.3     1  UNL1       -0.1862
      2 C          65.1221   84.0468   14.3527 C.3     1  UNL1        0.1775
      3 C          64.6988   85.4803   14.4791 C.2     1  UNL1        0.2452
      4 O          65.2991   86.3483   15.5451 O.2     1  UNL1       -0.2732
      5 N          63.6753   86.0457   13.5396 N.am    1  UNL1       -0.2541
      6 C          63.0751   85.1777   12.4737 C.3     1  UNL1        0.1908
      7 C          62.0516   85.7431   11.5341 C.3     1  UNL1        0.1359
      8 N          61.6283   87.1765   11.6606 N.am    1  UNL1       -0.2705
      9 C          62.2285   88.0446   12.7266 C.2     1  UNL1        0.2445
     10 O          61.8052   89.4781   12.8530 O.2     1  UNL1       -0.2731
     11 C          63.2520   87.4792   13.6660 C.3     1  UNL1        0.1577
     12 N          63.4984   83.7442   12.3473 N.am    1  UNL1       -0.1863
     13 C          62.8982   82.8761   11.2813 C.2     1  UNL1        0.3191
     14 O          61.8747   83.4416   10.3418 O.2     1  UNL1       -0.2512
     15 N          63.3215   81.4427   11.1549 N.am    1  UNL1       -0.2836
     16 H          63.9932   81.0716   11.7715 H       1  UNL1        0.1513
     17 C          64.9452   81.7453   13.1604 C.3     1  UNL1        0.1188
     18 C          62.8030   80.5913   14.0709 C.2     1  UNL1       -0.0034
     19 C          64.2983   80.6943   14.0129 C.2     1  UNL1       -0.0071
     20 C          60.6048   87.7420   10.7211 C.3     1  UNL1        0.1217
     21 C          60.9714   88.8706    9.8034 C.ar    1  UNL1        0.0135
     22 C          62.0036   89.8743   10.2243 C.ar    1  UNL1       -0.0012
     23 C          62.3702   91.0028    9.3067 C.ar    1  UNL1       -0.0002
     24 C          61.7046   91.1276    7.9683 C.ar    1  UNL1        0.0016
     25 C          60.6724   90.1239    7.5475 C.ar    1  UNL1        0.0214
     26 C          59.8534   89.9901    6.2980 C.ar    1  UNL1        0.0722
     27 C          58.9807   88.7788    6.4433 C.ar    1  UNL1        0.0805
     28 N          59.2602   88.1641    7.7826 N.ar    1  UNL1       -0.3241
     29 C          58.6087   86.9340    8.3414 C.3     1  UNL1        0.1305
     30 C          60.3058   88.9954    8.4650 C.ar    1  UNL1        0.0577
     31 C          59.8992   90.9067    5.1114 C.2     1  UNL1        0.2510
     32 O          58.6304   91.4936    4.5677 O.2     1  UNL1       -0.2698
     33 N          61.2138   91.2362    4.4685 N.am    1  UNL1       -0.2791
     34 H          62.0465   90.8510    4.8254 H       1  UNL1        0.1552
     35 C          61.2596   92.1528    3.2820 C.ar    1  UNL1        0.0701
     36 C          60.2089   93.2093    3.1094 C.ar    1  UNL1        0.0191
     37 C          60.2546   94.1258    1.9229 C.ar    1  UNL1        0.0354
     38 C          61.3511   93.9859    0.9090 C.ar    1  UNL1        0.1287
     39 N          62.4019   92.9294    1.0816 N.ar    1  UNL1       -0.2281
     40 C          62.3561   92.0128    2.2681 C.ar    1  UNL1        0.1149
     41 N          61.3970   94.9024   -0.2775 N.pl3   1  UNL1       -0.3160
     42 H          60.6641   94.8937   -0.9348 H       1  UNL1        0.1483
     43 C          62.5594   95.8322   -0.4625 C.3     1  UNL1        0.1204
     44 C          63.8696   95.3040   -0.9669 C.3     1  UNL1        0.1591
     45 O          64.0751   95.0874   -2.4368 O.3     1  UNL1       -0.3802
     46 H          63.2693   95.3364   -2.9161 H       1  UNL1        0.2105
     47 C          64.9743   94.9923   -0.0012 C.3     1  UNL1        0.1680
     48 O          65.3412   93.5660    0.2836 O.3     1  UNL1       -0.3795
     49 H          64.6032   93.1260    0.7337 H       1  UNL1        0.2105
     50 C          63.8522   88.3472   14.7320 C.3     1  UNL1        0.0556
     51 C          64.4174   89.6902   14.3755 C.ar    1  UNL1       -0.0198
     52 C          64.3821   90.1652   12.9532 C.ar    1  UNL1       -0.0011
     53 C          64.9473   91.5082   12.5967 C.ar    1  UNL1        0.0363
     54 C          65.5477   92.3761   13.6626 C.ar    1  UNL1        0.1337
     55 O          66.1129   93.7190   13.3061 O.3     1  UNL1       -0.5055
     56 C          65.5831   91.9010   15.0850 C.ar    1  UNL1        0.0363
     57 C          65.0179   90.5581   15.4415 C.ar    1  UNL1       -0.0011
     58 H          66.0908   94.0158   12.4176 H       1  UNL1        0.2922
     59 C          62.7213   80.5746   10.0890 C.3     1  UNL1        0.1177
     60 C          63.0885   79.1225   10.0093 C.ar    1  UNL1       -0.0025
     61 C          62.4982   78.1451   10.9821 C.ar    1  UNL1       -0.0026
     62 C          62.8655   76.6930   10.9024 C.ar    1  UNL1       -0.0003
     63 C          63.8230   76.2181    9.8501 C.ar    1  UNL1       -0.0000
     64 C          64.4134   77.1955    8.8772 C.ar    1  UNL1       -0.0003
     65 C          64.0461   78.6477    8.9569 C.ar    1  UNL1       -0.0026
@<TRIPOS>BOND
     1    18    19    2
     2    19    17    1
     3    17     1    1
     4     1     2    1
     5     2     3    1
     6     3     4    2
     7     3     5   am
     8     5     6    1
     9     6     7    1
    10     7     8    1
    11     8    20    1
    12    20    21    1
    13    21    22   ar
    14    22    23   ar
    15    23    24   ar
    16    24    25   ar
    17    25    26   ar
    18    26    31    1
    19    31    32    2
    20    31    33   am
    21    33    35    1
    22    35    36   ar
    23    36    37   ar
    24    37    38   ar
    25    38    41    1
    26    41    43    1
    27    43    44    1
    28    44    45    1
    29    44    47    1
    30    47    48    1
    31    38    39   ar
    32    39    40   ar
    33    26    27   ar
    34    27    28   ar
    35    28    29    1
    36    28    30   ar
    37     8     9   am
    38     9    10    2
    39     9    11    1
    40    11    50    1
    41    50    51    1
    42    51    52   ar
    43    52    53   ar
    44    53    54   ar
    45    54    55    1
    46    54    56   ar
    47    56    57   ar
    48     6    12    1
    49    12    13   am
    50    13    14    2
    51    13    15   am
    52    15    59    1
    53    59    60    1
    54    60    61   ar
    55    61    62   ar
    56    62    63   ar
    57    63    64   ar
    58    64    65   ar
    59    12     1    1
    60    65    60   ar
    61    11     5    1
    62    57    51   ar
    63    30    21   ar
    64    30    25   ar
    65    40    35   ar
    66    33    34    1
    67    41    42    1
    68    45    46    1
    69    48    49    1
    70    55    58    1
    71    15    16    1
@<TRIPOS>MOLECULE
*****
 65 71 0 0 0
SMALL
GASTEIGER

@<TRIPOS>ATOM
      1 N          64.0395   90.1917   12.1540 N.3     1  UNL1       -0.1862
      2 C          63.8539   88.8195   12.7308 C.3     1  UNL1        0.1775
      3 C          62.8571   87.8785   12.1218 C.2     1  UNL1        0.2452
      4 O          62.6715   86.5063   12.6987 O.2     1  UNL1       -0.2732
      5 N          62.0459   88.3096   10.9360 N.am    1  UNL1       -0.2541
      6 C          62.2316   89.6817   10.3592 C.3     1  UNL1        0.1908
      7 C          61.4204   90.1129    9.1733 C.3     1  UNL1        0.1359
      8 N          60.4236   89.1718    8.5644 N.am    1  UNL1       -0.2705
      9 C          60.2380   87.7996    9.1412 C.2     1  UNL1        0.2445
     10 O          59.2412   86.8586    8.5322 O.2     1  UNL1       -0.2731
     11 C          61.0492   87.3685   10.3270 C.3     1  UNL1        0.1577
     12 N          63.2283   90.6228   10.9682 N.am    1  UNL1       -0.1863
     13 C          63.4139   91.9950   10.3913 C.2     1  UNL1        0.3191
     14 O          62.6028   92.4260    9.2055 O.2     1  UNL1       -0.2512
     15 N          64.4107   92.9360   11.0003 N.am    1  UNL1       -0.2836
     16 H          64.9431   92.6530   11.7786 H       1  UNL1        0.1513
     17 C          65.0363   91.1327   12.7630 C.3     1  UNL1        0.1188
     18 C          66.4348   91.8756   14.8227 C.2     1  UNL1       -0.0034
     19 C          65.2833   91.1092   14.2423 C.2     1  UNL1       -0.0071
     20 C          59.6125   89.6029    7.3786 C.3     1  UNL1        0.1217
     21 C          60.2753   90.3091    6.2331 C.ar    1  UNL1        0.0135
     22 C          61.7708   90.3108    6.1175 C.ar    1  UNL1       -0.0012
     23 C          62.4337   91.0170    4.9721 C.ar    1  UNL1       -0.0002
     24 C          61.6010   91.7213    3.9423 C.ar    1  UNL1        0.0016
     25 C          60.1055   91.7196    4.0580 C.ar    1  UNL1        0.0214
     26 C          59.0319   92.3236    3.2021 C.ar    1  UNL1        0.0722
     27 C          57.7056   91.9908    3.8185 C.ar    1  UNL1        0.0805
     28 N          57.9594   91.1811    5.0553 N.ar    1  UNL1       -0.3241
     29 C          56.9136   90.6349    5.9816 C.3     1  UNL1        0.1305
     30 C          59.4426   91.0135    5.2034 C.ar    1  UNL1        0.0577
     31 C          59.2470   93.1206    1.9496 C.2     1  UNL1        0.2510
     32 O          59.9802   94.4279    2.0090 O.2     1  UNL1       -0.2698
     33 N          58.7288   92.6104    0.6377 N.am    1  UNL1       -0.2791
     34 H          58.2476   91.7524    0.5987 H       1  UNL1        0.1552
     35 C          58.9438   93.4072   -0.6148 C.ar    1  UNL1        0.0701
     36 C          60.1313   93.1270   -1.4873 C.ar    1  UNL1        0.0191
     37 C          60.3464   93.9239   -2.7398 C.ar    1  UNL1        0.0354
     38 C          59.3740   95.0009   -3.1198 C.ar    1  UNL1        0.1287
     39 N          58.1865   95.2811   -2.2472 N.ar    1  UNL1       -0.2281
     40 C          57.9714   94.4843   -0.9947 C.ar    1  UNL1        0.1149
     41 N          59.5890   95.7978   -4.3722 N.pl3   1  UNL1       -0.3160
     42 H          60.4312   96.2904   -4.5038 H       1  UNL1        0.1483
     43 C          58.5208   95.8442   -5.4243 C.3     1  UNL1        0.1204
     44 C          57.8855   94.5732   -5.9049 C.3     1  UNL1        0.1591
     45 O          58.6672   93.6209   -6.7604 O.3     1  UNL1       -0.3802
     46 H          59.5581   93.9752   -6.9076 H       1  UNL1        0.2105
     47 C          56.4685   94.2546   -5.5299 C.3     1  UNL1        0.1680
     48 O          56.0391   94.3233   -4.0943 O.3     1  UNL1       -0.3795
     49 H          56.4998   93.6376   -3.5859 H       1  UNL1        0.2105
     50 C          60.8635   85.9964   10.9038 C.3     1  UNL1        0.0556
     51 C          61.8989   84.9371   10.6675 C.ar    1  UNL1       -0.0198
     52 C          62.7720   85.0002    9.4495 C.ar    1  UNL1       -0.0011
     53 C          63.8074   83.9409    9.2132 C.ar    1  UNL1        0.0363
     54 C          63.9698   82.8185   10.1950 C.ar    1  UNL1        0.1337
     55 O          65.0052   81.7592    9.9587 O.3     1  UNL1       -0.5055
     56 C          63.0967   82.7554   11.4131 C.ar    1  UNL1        0.0363
     57 C          62.0613   83.8147   11.6494 C.ar    1  UNL1       -0.0011
     58 H          65.5506   81.7986    9.1978 H       1  UNL1        0.2922
     59 C          64.5963   94.3081   10.4235 C.3     1  UNL1        0.1177
     60 C          65.8718   94.6580    9.7158 C.ar    1  UNL1       -0.0025
     61 C          66.9529   93.6291    9.5661 C.ar    1  UNL1       -0.0026
     62 C          68.2284   93.9790    8.8583 C.ar    1  UNL1       -0.0003
     63 C          68.4226   95.3577    8.3003 C.ar    1  UNL1       -0.0000
     64 C          67.3414   96.3866    8.4500 C.ar    1  UNL1       -0.0003
     65 C          66.0660   96.0367    9.1577 C.ar    1  UNL1       -0.0026
@<TRIPOS>BOND
     1    18    19    2
     2    19    17    1
     3    17     1    1
     4     1     2    1
     5     2     3    1
     6     3     4    2
     7     3     5   am
     8     5     6    1
     9     6     7    1
    10     7     8    1
    11     8    20    1
    12    20    21    1
    13    21    22   ar
    14    22    23   ar
    15    23    24   ar
    16    24    25   ar
    17    25    26   ar
    18    26    31    1
    19    31    32    2
    20    31    33   am
    21    33    35    1
    22    35    36   ar
    23    36    37   ar
    24    37    38   ar
    25    38    41    1
    26    41    43    1
    27    43    44    1
    28    44    45    1
    29    44    47    1
    30    47    48    1
    31    38    39   ar
    32    39    40   ar
    33    26    27   ar
    34    27    28   ar
    35    28    29    1
    36    28    30   ar
    37     8     9   am
    38     9    10    2
    39     9    11    1
    40    11    50    1
    41    50    51    1
    42    51    52   ar
    43    52    53   ar
    44    53    54   ar
    45    54    55    1
    46    54    56   ar
    47    56    57   ar
    48     6    12    1
    49    12    13   am
    50    13    14    2
    51    13    15   am
    52    15    59    1
    53    59    60    1
    54    60    61   ar
    55    61    62   ar
    56    62    63   ar
    57    63    64   ar
    58    64    65   ar
    59    12     1    1
    60    65    60   ar
    61    11     5    1
    62    57    51   ar
    63    30    21   ar
    64    30    25   ar
    65    40    35   ar
    66    33    34    1
    67    41    42    1
    68    45    46    1
    69    48    49    1
    70    55    58    1
    71    15    16    1
