@<TRIPOS>MOLECULE
*****
 32 34 0 0 0
SMALL
GASTEIGER

@<TRIPOS>ATOM
      1 N          63.7969   86.8008   13.9240 N.pl3   1  UNL1       -0.2916
      2 C          63.4749   87.9306   12.9912 C.3     1  UNL1        0.1030
      3 C          64.1719   88.8887   13.9111 C.3     1  UNL1        0.1174
      4 C          64.4940   87.7590   14.8439 C.3     1  UNL1        0.1030
      5 C          63.0014   82.3718   13.9514 C.ar    1  UNL1        0.0900
      6 C          62.6719   83.2005   15.1575 C.ar    1  UNL1        0.0207
      7 C          62.9370   84.6768   15.1484 C.ar    1  UNL1        0.1001
      8 C          63.5318   85.3245   13.9332 C.ar    1  UNL1        0.1409
      9 N          63.8613   84.4958   12.7271 N.ar    1  UNL1       -0.2341
     10 C          63.5962   83.0195   12.7362 C.ar    1  UNL1        0.0670
     11 C          63.9258   82.1908   11.5301 C.3     1  UNL1        0.0524
     12 C          62.7363   80.8954   13.9606 C.2     1  UNL1        0.3424
     13 O          63.7981   79.9456   14.4300 O.2     1  UNL1       -0.2449
     14 O          61.4093   80.3689   13.5003 O.3     1  UNL1       -0.4454
     15 C          59.0313   79.7697   14.3582 C.3     1  UNL1        0.0513
     16 C          60.1560   80.7538   14.2291 C.3     1  UNL1        0.2089
     17 C          62.6074   85.5055   16.3545 C.1     1  UNL1        0.1032
     18 N          62.2778   86.3342   17.5606 N.1     1  UNL1       -0.1907
     19 C          64.4371   90.3650   13.9019 C.2     1  UNL1        0.2435
     20 O          63.6126   91.2804   14.7576 O.2     1  UNL1       -0.2734
     21 N          65.5267   90.9260   13.0371 N.am    1  UNL1       -0.1884
     22 H          66.0679   90.3252   12.4755 H       1  UNL1        0.1762
     23 S          65.7919   92.4023   13.0280 S.O2    1  UNL1        0.0602
     24 O          64.6071   92.6096   12.1317 O.2     1  UNL1       -0.1541
     25 O          66.9767   92.1951   13.9242 O.2     1  UNL1       -0.1541
     26 C          66.0571   93.8787   13.0188 C.3     1  UNL1        0.1988
     27 C          66.4244   94.5668   11.7376 C.ar    1  UNL1        0.0032
     28 C          67.0977   93.7979   10.6397 C.ar    1  UNL1       -0.0025
     29 C          67.4650   94.4860    9.3585 C.ar    1  UNL1       -0.0003
     30 C          67.1591   95.9431    9.1752 C.ar    1  UNL1       -0.0000
     31 C          66.4859   96.7119   10.2731 C.ar    1  UNL1       -0.0003
     32 C          66.1185   96.0238   11.5544 C.ar    1  UNL1       -0.0025
@<TRIPOS>BOND
     1    15    16    1
     2    16    14    1
     3    14    12    1
     4    12    13    2
     5    12     5    1
     6     5     6   ar
     7     6     7   ar
     8     7    17    1
     9    17    18    3
    10     7     8   ar
    11     8     1    1
    12     1     2    1
    13     2     3    1
    14     3    19    1
    15    19    20    2
    16    19    21   am
    17    21    23    1
    18    23    24    2
    19    23    25    2
    20    23    26    1
    21    26    27    1
    22    27    28   ar
    23    28    29   ar
    24    29    30   ar
    25    30    31   ar
    26    31    32   ar
    27     3     4    1
    28     8     9   ar
    29     9    10   ar
    30    10    11    1
    31    10     5   ar
    32     4     1    1
    33    32    27   ar
    34    21    22    1
@<TRIPOS>MOLECULE
*****
 32 34 0 0 0
SMALL
GASTEIGER

@<TRIPOS>ATOM
      1 N          63.8462   86.7186   13.7304 N.pl3   1  UNL1       -0.2916
      2 C          64.5713   87.6310   14.6748 C.3     1  UNL1        0.1030
      3 C          64.1883   88.8098   13.8300 C.3     1  UNL1        0.1174
      4 C          63.4632   87.8974   12.8856 C.3     1  UNL1        0.1030
      5 C          63.1204   82.2825   13.5194 C.ar    1  UNL1        0.0900
      6 C          62.6779   83.0584   14.7244 C.ar    1  UNL1        0.0207
      7 C          62.9198   84.5371   14.7947 C.ar    1  UNL1        0.1001
      8 C          63.6043   85.2399   13.6601 C.ar    1  UNL1        0.1409
      9 N          64.0468   84.4640   12.4551 N.ar    1  UNL1       -0.2341
     10 C          63.8049   82.9853   12.3847 C.ar    1  UNL1        0.0670
     11 C          64.2475   82.2095   11.1796 C.3     1  UNL1        0.0524
     12 C          62.8785   80.8038   13.4490 C.2     1  UNL1        0.3424
     13 O          63.3423   79.9141   14.5639 O.2     1  UNL1       -0.2449
     14 O          62.1727   80.2149   12.2637 O.3     1  UNL1       -0.4454
     15 C          62.5443   78.4013   10.4408 C.3     1  UNL1        0.0513
     16 C          62.9658   79.6758   11.1102 C.3     1  UNL1        0.2089
     17 C          62.4772   85.3130   15.9999 C.1     1  UNL1        0.1032
     18 N          62.0347   86.0888   17.2049 N.1     1  UNL1       -0.1907
     19 C          64.4302   90.2884   13.9003 C.2     1  UNL1        0.2435
     20 O          63.6035   91.1409   14.8166 O.2     1  UNL1       -0.2734
     21 N          65.4989   90.9147   13.0544 N.am    1  UNL1       -0.1884
     22 H          66.0416   90.3552   12.4529 H       1  UNL1        0.1762
     23 S          65.7408   92.3934   13.1247 S.O2    1  UNL1        0.0602
     24 O          66.8676   92.1632   14.0878 O.2     1  UNL1       -0.1541
     25 O          64.6141   92.6235   12.1617 O.2     1  UNL1       -0.1541
     26 C          65.9828   93.8720   13.1951 C.3     1  UNL1        0.1988
     27 C          66.3460   94.6325   11.9542 C.ar    1  UNL1        0.0032
     28 C          67.0466   93.9357   10.8257 C.ar    1  UNL1       -0.0025
     29 C          67.4098   94.6961    9.5848 C.ar    1  UNL1       -0.0003
     30 C          67.0724   96.1534    9.4725 C.ar    1  UNL1       -0.0000
     31 C          66.3718   96.8502   10.6010 C.ar    1  UNL1       -0.0003
     32 C          66.0086   96.0897   11.8419 C.ar    1  UNL1       -0.0025
@<TRIPOS>BOND
     1    15    16    1
     2    16    14    1
     3    14    12    1
     4    12    13    2
     5    12     5    1
     6     5     6   ar
     7     6     7   ar
     8     7    17    1
     9    17    18    3
    10     7     8   ar
    11     8     1    1
    12     1     2    1
    13     2     3    1
    14     3    19    1
    15    19    20    2
    16    19    21   am
    17    21    23    1
    18    23    24    2
    19    23    25    2
    20    23    26    1
    21    26    27    1
    22    27    28   ar
    23    28    29   ar
    24    29    30   ar
    25    30    31   ar
    26    31    32   ar
    27     3     4    1
    28     8     9   ar
    29     9    10   ar
    30    10    11    1
    31    10     5   ar
    32     4     1    1
    33    32    27   ar
    34    21    22    1
@<TRIPOS>MOLECULE
*****
 32 34 0 0 0
SMALL
GASTEIGER

@<TRIPOS>ATOM
      1 N          64.6902   90.2176   13.5372 N.pl3   1  UNL1       -0.2916
      2 C          65.0090   89.3931   14.7491 C.3     1  UNL1        0.1030
      3 C          64.1018   88.3080   14.2495 C.3     1  UNL1        0.1174
      4 C          63.7830   89.1325   13.0376 C.3     1  UNL1        0.1030
      5 C          65.9384   94.2684   12.0262 C.ar    1  UNL1        0.0900
      6 C          65.0653   93.3890   11.1810 C.ar    1  UNL1        0.0207
      7 C          64.6493   92.0387   11.6847 C.ar    1  UNL1        0.1001
      8 C          65.1063   91.5678   13.0335 C.ar    1  UNL1        0.1409
      9 N          65.9794   92.4472   13.8787 N.ar    1  UNL1       -0.2341
     10 C          66.3954   93.7975   13.3750 C.ar    1  UNL1        0.0670
     11 C          67.2686   94.6769   14.2203 C.3     1  UNL1        0.0524
     12 C          66.3545   95.6186   11.5225 C.2     1  UNL1        0.3424
     13 O          65.6733   96.8529   12.0350 O.2     1  UNL1       -0.2449
     14 O          67.4517   95.7347   10.5065 O.3     1  UNL1       -0.4454
     15 C          68.0119   93.6901    9.0044 C.3     1  UNL1        0.0513
     16 C          67.3379   95.0167    9.1944 C.3     1  UNL1        0.2089
     17 C          63.7761   91.1593   10.8395 C.1     1  UNL1        0.1032
     18 N          62.9031   90.2799    9.9943 N.1     1  UNL1       -0.1907
     19 C          63.6858   86.9578   14.7531 C.2     1  UNL1        0.2435
     20 O          63.2126   86.7980   16.1675 O.2     1  UNL1       -0.2734
     21 N          63.7428   85.7673   13.8424 N.am    1  UNL1       -0.1884
     22 H          64.0534   85.8722   12.9140 H       1  UNL1        0.1762
     23 S          63.3268   84.4170   14.3460 S.O2    1  UNL1        0.0602
     24 O          64.7679   84.0294   14.4972 O.2     1  UNL1       -0.1541
     25 O          61.8856   84.8047   14.1949 O.2     1  UNL1       -0.1541
     26 C          62.9107   83.0668   14.8497 C.3     1  UNL1        0.1988
     27 C          62.7704   81.9200   13.8931 C.ar    1  UNL1        0.0032
     28 C          62.2018   80.6147   14.3652 C.ar    1  UNL1       -0.0025
     29 C          62.0615   79.4679   13.4086 C.ar    1  UNL1       -0.0003
     30 C          62.4897   79.6265   11.9797 C.ar    1  UNL1       -0.0000
     31 C          63.0582   80.9318   11.5076 C.ar    1  UNL1       -0.0003
     32 C          63.1986   82.0786   12.4643 C.ar    1  UNL1       -0.0025
@<TRIPOS>BOND
     1    15    16    1
     2    16    14    1
     3    14    12    1
     4    12    13    2
     5    12     5    1
     6     5     6   ar
     7     6     7   ar
     8     7    17    1
     9    17    18    3
    10     7     8   ar
    11     8     1    1
    12     1     2    1
    13     2     3    1
    14     3    19    1
    15    19    20    2
    16    19    21   am
    17    21    23    1
    18    23    24    2
    19    23    25    2
    20    23    26    1
    21    26    27    1
    22    27    28   ar
    23    28    29   ar
    24    29    30   ar
    25    30    31   ar
    26    31    32   ar
    27     3     4    1
    28     8     9   ar
    29     9    10   ar
    30    10    11    1
    31    10     5   ar
    32     4     1    1
    33    32    27   ar
    34    21    22    1
@<TRIPOS>MOLECULE
*****
 32 34 0 0 0
SMALL
GASTEIGER

@<TRIPOS>ATOM
      1 N          63.4124   87.1462   13.0131 N.pl3   1  UNL1       -0.2916
      2 C          64.2561   88.0663   13.8448 C.3     1  UNL1        0.1030
      3 C          63.8454   89.2226   12.9822 C.3     1  UNL1        0.1174
      4 C          63.0017   88.3026   12.1504 C.3     1  UNL1        0.1030
      5 C          62.4939   82.7414   13.0787 C.ar    1  UNL1        0.0900
      6 C          62.2930   83.5308   11.8191 C.ar    1  UNL1        0.0207
      7 C          62.5992   84.9991   11.7973 C.ar    1  UNL1        0.1001
      8 C          63.1063   85.6780   13.0349 C.ar    1  UNL1        0.1409
      9 N          63.3072   84.8886   14.2945 N.ar    1  UNL1       -0.2341
     10 C          63.0010   83.4203   14.3163 C.ar    1  UNL1        0.0670
     11 C          63.2020   82.6310   15.5760 C.3     1  UNL1        0.0524
     12 C          62.1877   81.2732   13.1005 C.2     1  UNL1        0.3424
     13 O          61.0638   80.7539   13.9473 O.2     1  UNL1       -0.2449
     14 O          63.0055   80.3242   12.2756 O.3     1  UNL1       -0.4454
     15 C          63.0992   79.5977    9.7829 C.3     1  UNL1        0.0513
     16 C          62.3859   79.6248   11.1022 C.3     1  UNL1        0.2089
     17 C          62.3982   85.7884   10.5376 C.1     1  UNL1        0.1032
     18 N          62.1972   86.5777    9.2781 N.1     1  UNL1       -0.1907
     19 C          64.1516   90.6909   12.9603 C.2     1  UNL1        0.2435
     20 O          63.2342   91.6586   13.6471 O.2     1  UNL1       -0.2734
     21 N          65.3752   91.1914   12.2516 N.am    1  UNL1       -0.1884
     22 H          65.9773   90.5562   11.8009 H       1  UNL1        0.1762
     23 S          65.6814   92.6596   12.2298 S.O2    1  UNL1        0.0602
     24 O          64.8784   92.8084   10.9716 O.2     1  UNL1       -0.1541
     25 O          66.4843   92.5109   13.4880 O.2     1  UNL1       -0.1541
     26 C          65.9875   94.1279   12.2079 C.3     1  UNL1        0.1988
     27 C          66.5098   94.7666   10.9553 C.ar    1  UNL1        0.0032
     28 C          66.2318   96.2145   10.6795 C.ar    1  UNL1       -0.0025
     29 C          66.7541   96.8532    9.4268 C.ar    1  UNL1       -0.0003
     30 C          67.5545   96.0438    8.4498 C.ar    1  UNL1       -0.0000
     31 C          67.8326   94.5959    8.7256 C.ar    1  UNL1       -0.0003
     32 C          67.3102   93.9572    9.9784 C.ar    1  UNL1       -0.0025
@<TRIPOS>BOND
     1    15    16    1
     2    16    14    1
     3    14    12    1
     4    12    13    2
     5    12     5    1
     6     5     6   ar
     7     6     7   ar
     8     7    17    1
     9    17    18    3
    10     7     8   ar
    11     8     1    1
    12     1     2    1
    13     2     3    1
    14     3    19    1
    15    19    20    2
    16    19    21   am
    17    21    23    1
    18    23    24    2
    19    23    25    2
    20    23    26    1
    21    26    27    1
    22    27    28   ar
    23    28    29   ar
    24    29    30   ar
    25    30    31   ar
    26    31    32   ar
    27     3     4    1
    28     8     9   ar
    29     9    10   ar
    30    10    11    1
    31    10     5   ar
    32     4     1    1
    33    32    27   ar
    34    21    22    1
@<TRIPOS>MOLECULE
*****
 32 34 0 0 0
SMALL
GASTEIGER

@<TRIPOS>ATOM
      1 N          63.9271   87.6562   13.9146 N.pl3   1  UNL1       -0.2916
      2 C          64.8502   88.5967   14.6312 C.3     1  UNL1        0.1030
      3 C          64.4321   89.7066   13.7130 C.3     1  UNL1        0.1174
      4 C          63.5090   88.7663   12.9964 C.3     1  UNL1        0.1030
      5 C          62.8556   83.3066   14.3423 C.ar    1  UNL1        0.0900
      6 C          62.7961   84.2145   15.5349 C.ar    1  UNL1        0.0207
      7 C          63.1533   85.6643   15.3923 C.ar    1  UNL1        0.1001
      8 C          63.5699   86.2063   14.0572 C.ar    1  UNL1        0.1409
      9 N          63.6294   85.2985   12.8647 N.ar    1  UNL1       -0.2341
     10 C          63.2723   83.8486   13.0072 C.ar    1  UNL1        0.0670
     11 C          63.3318   82.9407   11.8146 C.3     1  UNL1        0.0524
     12 C          62.4985   81.8567   14.4849 C.2     1  UNL1        0.3424
     13 O          63.5451   80.8026   14.2770 O.2     1  UNL1       -0.2449
     14 O          61.0947   81.4611   14.8353 O.3     1  UNL1       -0.4454
     15 C          60.9420   79.0837   13.7986 C.3     1  UNL1        0.0513
     16 C          60.3667   80.4552   13.9937 C.3     1  UNL1        0.2089
     17 C          63.0937   86.5722   16.5849 C.1     1  UNL1        0.1032
     18 N          63.0342   87.4800   17.7775 N.1     1  UNL1       -0.1907
     19 C          64.7893   91.1565   13.5704 C.2     1  UNL1        0.2435
     20 O          64.2768   92.1564   14.5641 O.2     1  UNL1       -0.2734
     21 N          65.6589   91.6065   12.4341 N.am    1  UNL1       -0.1884
     22 H          65.9953   90.9502   11.7819 H       1  UNL1        0.1762
     23 S          66.0160   93.0563   12.2915 S.O2    1  UNL1        0.0602
     24 O          67.1117   92.8858   13.3017 O.2     1  UNL1       -0.1541
     25 O          64.9204   93.2269   11.2814 O.2     1  UNL1       -0.1541
     26 C          66.3732   94.5062   12.1490 C.3     1  UNL1        0.1988
     27 C          66.4773   95.1224   10.7854 C.ar    1  UNL1        0.0032
     28 C          65.5528   96.2367   10.3933 C.ar    1  UNL1       -0.0025
     29 C          65.6569   96.8529    9.0298 C.ar    1  UNL1       -0.0003
     30 C          66.6855   96.3548    8.0581 C.ar    1  UNL1       -0.0000
     31 C          67.6100   95.2405    8.4502 C.ar    1  UNL1       -0.0003
     32 C          67.5058   94.6243    9.8139 C.ar    1  UNL1       -0.0025
@<TRIPOS>BOND
     1    15    16    1
     2    16    14    1
     3    14    12    1
     4    12    13    2
     5    12     5    1
     6     5     6   ar
     7     6     7   ar
     8     7    17    1
     9    17    18    3
    10     7     8   ar
    11     8     1    1
    12     1     2    1
    13     2     3    1
    14     3    19    1
    15    19    20    2
    16    19    21   am
    17    21    23    1
    18    23    24    2
    19    23    25    2
    20    23    26    1
    21    26    27    1
    22    27    28   ar
    23    28    29   ar
    24    29    30   ar
    25    30    31   ar
    26    31    32   ar
    27     3     4    1
    28     8     9   ar
    29     9    10   ar
    30    10    11    1
    31    10     5   ar
    32     4     1    1
    33    32    27   ar
    34    21    22    1
