@<TRIPOS>MOLECULE
*****
 51 55 0 0 0
SMALL
GASTEIGER

@<TRIPOS>ATOM
      1 C          60.9770   89.0703    9.4363 C.3     1  UNL1        0.0760
      2 N          60.4626   89.9547    8.3394 N.am    1  UNL1       -0.3042
      3 C          59.7190   89.3579    7.1814 C.2     1  UNL1        0.2429
      4 O          59.4899   87.8768    7.1203 O.2     1  UNL1       -0.2732
      5 H          60.6130   90.9268    8.3795 H       1  UNL1        0.1494
      6 CA         59.2046   90.2423    6.0844 C.3     1  UNL1        0.1793
      7 N          60.1559   90.8209    5.0793 N.am    1  UNL1       -0.2805
      8 C          59.7615   92.0288    4.2821 C.2     1  UNL1        0.3045
      9 O          58.4158   92.6581    4.4902 O.2     1  UNL1       -0.2526
     10 N          60.7127   92.6075    3.2770 N.am    1  UNL1       -0.2612
     11 H          61.0391   90.4079    4.9427 H       1  UNL1        0.1514
     12 C          62.0584   91.9782    3.0690 C.3     1  UNL1        0.0773
     13 C          63.0229   90.8587    3.3270 C.3     1  UNL1        0.0216
     14 C          63.4247   92.0078    2.4506 C.3     1  UNL1        0.0216
     15 C          60.3183   93.8154    2.4799 C.3     1  UNL1        0.1296
     16 C          59.8792   93.6622    1.0537 C.ar    1  UNL1        0.0479
     17 C          59.8354   92.3793    0.2776 C.ar    1  UNL1        0.1033
     18 N          59.3360   92.6892   -1.1024 N.ar    1  UNL1       -0.2350
     19 C          59.0711   94.1637   -1.1792 C.ar    1  UNL1        0.1343
     20 S          59.4069   94.7650    0.1533 S.2     1  UNL1       -0.0671
     21 C          57.7390   90.5480    5.9926 C.3     1  UNL1        0.1661
     22 O          57.0135   90.3597    4.6933 O.3     1  UNL1       -0.3798
     23 H          57.3523   90.9909    4.0394 H       1  UNL1        0.2105
     24 C          60.4417   87.6776    9.5901 C.3     1  UNL1        0.0459
     25 C          61.3864   86.5272    9.7760 C.ar    1  UNL1       -0.0205
     26 C          62.1886   86.0203    8.6143 C.ar    1  UNL1       -0.0042
     27 C          63.1332   84.8701    8.8003 C.ar    1  UNL1       -0.0003
     28 C          63.2756   84.2267   10.1478 C.ar    1  UNL1       -0.0000
     29 C          62.4734   84.7337   11.3094 C.ar    1  UNL1       -0.0003
     30 C          61.5288   85.8839   11.1235 C.ar    1  UNL1       -0.0042
     31 C          62.0267   89.5788   10.3796 C.3     1  UNL1        0.0216
     32 C          61.8389   89.4320   11.8605 C.3     1  UNL1        0.0217
     33 C          63.0229   89.5098   12.7780 C.3     1  UNL1        0.0792
     34 O          63.5270   88.8863   15.6689 O.2     1  UNL1       -0.2264
     35 C          64.0125   87.9485   14.6038 C.2     1  UNL1        0.4019
     36 N          63.7605   88.2602   13.1582 N.am    1  UNL1       -0.2720
     37 H          64.0791   87.6446   12.4591 H       1  UNL1        0.1527
     38 O          64.7500   86.6989   14.9840 O.3     1  UNL1       -0.4291
     39 C          64.0435   85.6106   15.7366 C.3     1  UNL1        0.2447
     40 C          63.6838   84.3304   15.0426 C.ar    1  UNL1        0.0714
     41 C          64.5691   83.5509   14.1160 C.ar    1  UNL1        0.1053
     42 N          63.8080   82.3437   13.6540 N.ar    1  UNL1       -0.2350
     43 C          62.4523   82.3771   14.2950 C.ar    1  UNL1        0.1343
     44 S          62.3755   83.6050   15.1532 S.2     1  UNL1       -0.0652
     45 C          63.4695   90.8372   13.3153 C.3     1  UNL1        0.0460
     46 C          64.6667   91.5211   12.7245 C.ar    1  UNL1       -0.0205
     47 C          65.9013   91.7203   13.5527 C.ar    1  UNL1       -0.0042
     48 C          67.0985   92.4043   12.9619 C.ar    1  UNL1       -0.0003
     49 C          67.0610   92.8889   11.5429 C.ar    1  UNL1       -0.0000
     50 C          65.8264   92.6896   10.7146 C.ar    1  UNL1       -0.0003
     51 C          64.6292   92.0057   11.3054 C.ar    1  UNL1       -0.0042
@<TRIPOS>BOND
     1    34    35    2
     2    35    36   am
     3    36    33    1
     4    33    32    1
     5    32    31    1
     6     1    31    1
     7     1    24    1
     8    24    25    1
     9    25    26   ar
    10    26    27   ar
    11    27    28   ar
    12    28    29   ar
    13    29    30   ar
    14     1     2    1
    15     2     3   am
    16     3     4    2
    17     3     6    1
    18     6    21    1
    19    21    22    1
    20     6     7    1
    21     7     8   am
    22     8     9    2
    23     8    10   am
    24    10    15    1
    25    15    16    1
    26    16    17   ar
    27    17    18   ar
    28    18    19   ar
    29    19    20   ar
    30    10    12    1
    31    12    13    1
    32    13    14    1
    33    33    45    1
    34    45    46    1
    35    46    47   ar
    36    47    48   ar
    37    48    49   ar
    38    49    50   ar
    39    50    51   ar
    40    35    38    1
    41    38    39    1
    42    39    40    1
    43    40    41   ar
    44    41    42   ar
    45    42    43   ar
    46    43    44   ar
    47    30    25   ar
    48    20    16   ar
    49    14    12    1
    50    51    46   ar
    51    44    40   ar
    52    36    37    1
    53     2     5    1
    54    22    23    1
    55     7    11    1
@<TRIPOS>MOLECULE
*****
 51 55 0 0 0
SMALL
GASTEIGER

@<TRIPOS>ATOM
      1 C          64.0742   87.4362   14.3291 C.3     1  UNL1        0.0760
      2 N          64.6311   88.7871   14.6681 N.am    1  UNL1       -0.3042
      3 C          63.7901   89.7788   15.4161 C.2     1  UNL1        0.2429
      4 O          62.3924   89.4196   15.8250 O.2     1  UNL1       -0.2732
      5 H          65.5485   89.0228   14.3997 H       1  UNL1        0.1494
      6 CA         64.3470   91.1297   15.7551 C.3     1  UNL1        0.1793
      7 N          65.6434   91.5800   15.1495 N.am    1  UNL1       -0.2805
      8 C          65.7463   91.7892   13.6677 C.2     1  UNL1        0.3045
      9 O          64.5529   91.5480   12.7915 O.2     1  UNL1       -0.2526
     10 N          67.0426   92.2395   13.0621 N.am    1  UNL1       -0.2612
     11 H          66.4266   91.7383   15.7246 H       1  UNL1        0.1514
     12 C          68.2361   92.4807   13.9383 C.3     1  UNL1        0.0773
     13 C          69.7025   92.3191   14.2094 C.3     1  UNL1        0.0216
     14 C          68.8366   93.0600   15.1848 C.3     1  UNL1        0.0216
     15 C          67.1456   92.4487   11.5804 C.3     1  UNL1        0.1296
     16 C          66.8551   93.7973   10.9913 C.ar    1  UNL1        0.0479
     17 C          66.1724   94.9359   11.6896 C.ar    1  UNL1        0.1033
     18 N          66.0916   96.0864   10.7306 N.ar    1  UNL1       -0.2350
     19 C          66.7245   95.6588    9.4395 C.ar    1  UNL1        0.1343
     20 S          67.1963   94.2441    9.6007 S.2     1  UNL1       -0.0671
     21 C          63.6076   92.0302   16.6996 C.3     1  UNL1        0.1661
     22 O          64.3122   93.1924   17.3343 O.3     1  UNL1       -0.3798
     23 H          65.0039   92.8649   17.9303 H       1  UNL1        0.2105
     24 C          64.0907   86.3397   15.3525 C.3     1  UNL1        0.0459
     25 C          63.7779   84.9299   14.9465 C.ar    1  UNL1       -0.0205
     26 C          62.4036   84.3723   15.1707 C.ar    1  UNL1       -0.0042
     27 C          62.0909   82.9626   14.7647 C.ar    1  UNL1       -0.0003
     28 C          63.1525   82.1105   14.1345 C.ar    1  UNL1       -0.0000
     29 C          64.5268   82.6682   13.9104 C.ar    1  UNL1       -0.0003
     30 C          64.8395   84.0779   14.3164 C.ar    1  UNL1       -0.0042
     31 C          63.5007   87.1817   12.9665 C.3     1  UNL1        0.0216
     32 C          62.7743   88.2761   12.2422 C.3     1  UNL1        0.0217
     33 C          61.8253   87.9384   11.1307 C.3     1  UNL1        0.0792
     34 O          59.6192   87.3882    9.1736 O.2     1  UNL1       -0.2264
     35 C          60.3073   88.7211    9.1729 C.2     1  UNL1        0.4019
     36 N          61.4104   88.9962   10.1515 N.am    1  UNL1       -0.2720
     37 H          61.8620   89.8710   10.1511 H       1  UNL1        0.1527
     38 O          59.8923   89.7789    8.1937 O.3     1  UNL1       -0.4291
     39 C          59.4142   89.3891    6.8264 C.3     1  UNL1        0.2447
     40 C          59.1284   90.4469    5.8020 C.ar    1  UNL1        0.0714
     41 C          57.7750   90.9872    5.4465 C.ar    1  UNL1        0.1053
     42 N          57.9559   92.0244    4.3781 N.ar    1  UNL1       -0.2350
     43 C          59.4211   92.1251    4.0732 C.ar    1  UNL1        0.1343
     44 S          60.1457   91.1502    4.9533 S.2     1  UNL1       -0.0652
     45 C          61.2913   86.5429   10.9984 C.3     1  UNL1        0.0460
     46 C          62.1765   85.4468   10.4838 C.ar    1  UNL1       -0.0205
     47 C          62.5334   84.2917   11.3717 C.ar    1  UNL1       -0.0042
     48 C          63.4186   83.1956   10.8571 C.ar    1  UNL1       -0.0003
     49 C          63.9470   83.2545    9.4545 C.ar    1  UNL1       -0.0000
     50 C          63.5901   84.4096    8.5665 C.ar    1  UNL1       -0.0003
     51 C          62.7049   85.5057    9.0811 C.ar    1  UNL1       -0.0042
@<TRIPOS>BOND
     1    34    35    2
     2    35    36   am
     3    36    33    1
     4    33    32    1
     5    32    31    1
     6     1    31    1
     7     1    24    1
     8    24    25    1
     9    25    26   ar
    10    26    27   ar
    11    27    28   ar
    12    28    29   ar
    13    29    30   ar
    14     1     2    1
    15     2     3   am
    16     3     4    2
    17     3     6    1
    18     6    21    1
    19    21    22    1
    20     6     7    1
    21     7     8   am
    22     8     9    2
    23     8    10   am
    24    10    15    1
    25    15    16    1
    26    16    17   ar
    27    17    18   ar
    28    18    19   ar
    29    19    20   ar
    30    10    12    1
    31    12    13    1
    32    13    14    1
    33    33    45    1
    34    45    46    1
    35    46    47   ar
    36    47    48   ar
    37    48    49   ar
    38    49    50   ar
    39    50    51   ar
    40    35    38    1
    41    38    39    1
    42    39    40    1
    43    40    41   ar
    44    41    42   ar
    45    42    43   ar
    46    43    44   ar
    47    30    25   ar
    48    20    16   ar
    49    14    12    1
    50    51    46   ar
    51    44    40   ar
    52    36    37    1
    53     2     5    1
    54    22    23    1
    55     7    11    1
@<TRIPOS>MOLECULE
*****
 51 55 0 0 0
SMALL
GASTEIGER

@<TRIPOS>ATOM
      1 C          60.4451   88.9307    9.0161 C.3     1  UNL1        0.0760
      2 N          60.2422   89.8508    7.8489 N.am    1  UNL1       -0.3042
      3 C          59.1402   89.5844    6.8666 C.2     1  UNL1        0.2429
      4 O          58.2413   88.3979    7.0515 O.2     1  UNL1       -0.2732
      5 H          60.8322   90.6295    7.7275 H       1  UNL1        0.1494
      6 CA         58.9373   90.5045    5.6994 C.3     1  UNL1        0.1793
      7 N          60.1032   90.8936    4.8396 N.am    1  UNL1       -0.2805
      8 C          60.0165   92.1079    3.9632 C.2     1  UNL1        0.3045
      9 O          58.7638   92.9329    3.9466 O.2     1  UNL1       -0.2526
     10 N          61.1823   92.4970    3.1034 N.am    1  UNL1       -0.2612
     11 H          60.9253   90.3521    4.8505 H       1  UNL1        0.1514
     12 C          62.4350   91.6720    3.1200 C.3     1  UNL1        0.0773
     13 C          63.1247   90.3621    3.3622 C.3     1  UNL1        0.0216
     14 C          63.9149   91.5529    2.9067 C.3     1  UNL1        0.0216
     15 C          61.0956   93.7113    2.2270 C.3     1  UNL1        0.1296
     16 C          61.6671   93.6778    0.8405 C.ar    1  UNL1        0.0479
     17 C          61.1918   92.8120   -0.2885 C.ar    1  UNL1        0.1033
     18 N          62.0452   93.1033   -1.4871 N.ar    1  UNL1       -0.2350
     19 C          63.0480   94.1493   -1.0990 C.ar    1  UNL1        0.1343
     20 S          62.8143   94.5043    0.3395 S.2     1  UNL1       -0.0671
     21 C          57.5685   91.0353    5.3921 C.3     1  UNL1        0.1661
     22 O          56.3529   90.2859    5.8510 O.3     1  UNL1       -0.3798
     23 H          56.3043   89.4345    5.3887 H       1  UNL1        0.2105
     24 C          60.0184   87.4958    8.9229 C.3     1  UNL1        0.0459
     25 C          60.9268   86.4825    8.2919 C.ar    1  UNL1       -0.0205
     26 C          62.2980   86.2513    8.8543 C.ar    1  UNL1       -0.0042
     27 C          63.2064   85.2381    8.2232 C.ar    1  UNL1       -0.0003
     28 C          62.7436   84.4562    7.0298 C.ar    1  UNL1       -0.0000
     29 C          61.3724   84.6874    6.4674 C.ar    1  UNL1       -0.0003
     30 C          60.4641   85.7006    7.0984 C.ar    1  UNL1       -0.0042
     31 C          61.0748   89.4457   10.2764 C.3     1  UNL1        0.0216
     32 C          62.5054   89.1193   10.5877 C.3     1  UNL1        0.0217
     33 C          62.9494   88.9787   12.0135 C.3     1  UNL1        0.0792
     34 O          61.2364   86.5196   11.8774 O.2     1  UNL1       -0.2264
     35 C          62.6246   86.4364   12.4394 C.2     1  UNL1        0.4019
     36 N          63.4811   87.6660   12.5075 N.am    1  UNL1       -0.2720
     37 H          64.3923   87.6114   12.8764 H       1  UNL1        0.1527
     38 O          63.1564   85.1237   12.9334 O.3     1  UNL1       -0.4291
     39 C          63.1905   83.9360   12.0179 C.3     1  UNL1        0.2447
     40 C          62.8469   82.5738   12.5436 C.ar    1  UNL1        0.0714
     41 C          62.9879   81.2797   11.7982 C.ar    1  UNL1        0.1053
     42 N          62.5302   80.1726   12.7008 N.ar    1  UNL1       -0.2350
     43 C          62.1062   80.7824   14.0041 C.ar    1  UNL1        0.1343
     44 S          62.3020   82.2664   13.9069 S.2     1  UNL1       -0.0652
     45 C          62.8617   90.1509   12.9454 C.3     1  UNL1        0.0460
     46 C          64.0906   90.9501   13.2629 C.ar    1  UNL1       -0.0205
     47 C          64.6940   91.8440   12.2204 C.ar    1  UNL1       -0.0042
     48 C          65.9230   92.6433   12.5380 C.ar    1  UNL1       -0.0003
     49 C          66.5485   92.5487   13.8980 C.ar    1  UNL1       -0.0000
     50 C          65.9451   91.6548   14.9406 C.ar    1  UNL1       -0.0003
     51 C          64.7162   90.8555   14.6230 C.ar    1  UNL1       -0.0042
@<TRIPOS>BOND
     1    34    35    2
     2    35    36   am
     3    36    33    1
     4    33    32    1
     5    32    31    1
     6     1    31    1
     7     1    24    1
     8    24    25    1
     9    25    26   ar
    10    26    27   ar
    11    27    28   ar
    12    28    29   ar
    13    29    30   ar
    14     1     2    1
    15     2     3   am
    16     3     4    2
    17     3     6    1
    18     6    21    1
    19    21    22    1
    20     6     7    1
    21     7     8   am
    22     8     9    2
    23     8    10   am
    24    10    15    1
    25    15    16    1
    26    16    17   ar
    27    17    18   ar
    28    18    19   ar
    29    19    20   ar
    30    10    12    1
    31    12    13    1
    32    13    14    1
    33    33    45    1
    34    45    46    1
    35    46    47   ar
    36    47    48   ar
    37    48    49   ar
    38    49    50   ar
    39    50    51   ar
    40    35    38    1
    41    38    39    1
    42    39    40    1
    43    40    41   ar
    44    41    42   ar
    45    42    43   ar
    46    43    44   ar
    47    30    25   ar
    48    20    16   ar
    49    14    12    1
    50    51    46   ar
    51    44    40   ar
    52    36    37    1
    53     2     5    1
    54    22    23    1
    55     7    11    1
@<TRIPOS>MOLECULE
*****
 51 55 0 0 0
SMALL
GASTEIGER

@<TRIPOS>ATOM
      1 C          62.9921   86.3782   12.2905 C.3     1  UNL1        0.0760
      2 N          63.3298   87.8079   11.9871 N.am    1  UNL1       -0.3042
      3 C          62.2352   88.8247   11.8521 C.2     1  UNL1        0.2429
      4 O          60.8030   88.4117   12.0205 O.2     1  UNL1       -0.2732
      5 H          64.2698   88.0789   11.8765 H       1  UNL1        0.1494
      6 CA         62.5728   90.2543   11.5486 C.3     1  UNL1        0.1793
      7 N          63.7292   90.9147   12.2392 N.am    1  UNL1       -0.2805
      8 C          64.4703   92.0290   11.5616 C.2     1  UNL1        0.3045
      9 O          64.0550   92.4829   10.1935 O.2     1  UNL1       -0.2526
     10 N          65.6266   92.6894   12.2521 N.am    1  UNL1       -0.2612
     11 H          64.0016   90.6168   13.1371 H       1  UNL1        0.1514
     12 C          66.0418   92.2355   13.6202 C.3     1  UNL1        0.0773
     13 C          66.8045   91.2890   14.4990 C.3     1  UNL1        0.0216
     14 C          65.9982   92.3959   15.1110 C.3     1  UNL1        0.0216
     15 C          66.3677   93.8037   11.5746 C.3     1  UNL1        0.1296
     16 C          67.1486   93.5328   10.3228 C.ar    1  UNL1        0.0479
     17 C          67.8683   92.2593    9.9908 C.ar    1  UNL1        0.1033
     18 N          68.5113   92.4272    8.6461 N.ar    1  UNL1       -0.2350
     19 C          68.1891   93.8046    8.1470 C.ar    1  UNL1        0.1343
     20 S          67.3468   94.4879    9.1832 S.2     1  UNL1       -0.0671
     21 C          61.7542   91.0235   10.5546 C.3     1  UNL1        0.1661
     22 O          60.5483   90.3905    9.9260 O.3     1  UNL1       -0.3798
     23 H          60.8271   89.6484    9.3670 H       1  UNL1        0.2105
     24 C          61.8326   85.7195   11.6040 C.3     1  UNL1        0.0459
     25 C          61.8055   85.6189   10.1076 C.ar    1  UNL1       -0.0205
     26 C          60.6408   86.1701    9.3398 C.ar    1  UNL1       -0.0042
     27 C          60.6138   86.0695    7.8434 C.ar    1  UNL1       -0.0003
     28 C          61.7515   85.4176    7.1149 C.ar    1  UNL1       -0.0000
     29 C          62.9162   84.8664    7.8827 C.ar    1  UNL1       -0.0003
     30 C          62.9432   84.9670    9.3790 C.ar    1  UNL1       -0.0042
     31 C          63.8141   85.6074   13.2806 C.3     1  UNL1        0.0216
     32 C          63.6027   84.1313   13.4432 C.3     1  UNL1        0.0217
     33 C          62.4758   83.6243   14.2934 C.3     1  UNL1        0.0792
     34 O          64.0929   84.6675   16.5949 O.2     1  UNL1       -0.2264
     35 C          62.6478   85.0466   16.4608 C.2     1  UNL1        0.4019
     36 N          61.8392   84.5250   15.3100 N.am    1  UNL1       -0.2720
     37 H          60.8908   84.7739   15.2220 H       1  UNL1        0.1527
     38 O          62.0113   85.9474   17.4774 O.3     1  UNL1       -0.4291
     39 C          62.6812   87.2322   17.8651 C.3     1  UNL1        0.2447
     40 C          63.1349   88.1912   16.8047 C.ar    1  UNL1        0.0714
     41 C          63.9289   87.8416   15.5810 C.ar    1  UNL1        0.1053
     42 N          64.1590   89.1025   14.8019 N.ar    1  UNL1       -0.2350
     43 C          63.5074   90.2315   15.5440 C.ar    1  UNL1        0.1343
     44 S          62.8745   89.6682   16.7819 S.2     1  UNL1       -0.0652
     45 C          61.9853   82.2165   14.1271 C.3     1  UNL1        0.0460
     46 C          62.3475   81.4364   12.8981 C.ar    1  UNL1       -0.0205
     47 C          62.7285   82.1559   11.6383 C.ar    1  UNL1       -0.0042
     48 C          63.0907   81.3759   10.4093 C.ar    1  UNL1       -0.0003
     49 C          63.0719   79.8763   10.4402 C.ar    1  UNL1       -0.0000
     50 C          62.6909   79.1568   11.7000 C.ar    1  UNL1       -0.0003
     51 C          62.3287   79.9368   12.9290 C.ar    1  UNL1       -0.0042
@<TRIPOS>BOND
     1    34    35    2
     2    35    36   am
     3    36    33    1
     4    33    32    1
     5    32    31    1
     6     1    31    1
     7     1    24    1
     8    24    25    1
     9    25    26   ar
    10    26    27   ar
    11    27    28   ar
    12    28    29   ar
    13    29    30   ar
    14     1     2    1
    15     2     3   am
    16     3     4    2
    17     3     6    1
    18     6    21    1
    19    21    22    1
    20     6     7    1
    21     7     8   am
    22     8     9    2
    23     8    10   am
    24    10    15    1
    25    15    16    1
    26    16    17   ar
    27    17    18   ar
    28    18    19   ar
    29    19    20   ar
    30    10    12    1
    31    12    13    1
    32    13    14    1
    33    33    45    1
    34    45    46    1
    35    46    47   ar
    36    47    48   ar
    37    48    49   ar
    38    49    50   ar
    39    50    51   ar
    40    35    38    1
    41    38    39    1
    42    39    40    1
    43    40    41   ar
    44    41    42   ar
    45    42    43   ar
    46    43    44   ar
    47    30    25   ar
    48    20    16   ar
    49    14    12    1
    50    51    46   ar
    51    44    40   ar
    52    36    37    1
    53     2     5    1
    54    22    23    1
    55     7    11    1
@<TRIPOS>MOLECULE
*****
 51 55 0 0 0
SMALL
GASTEIGER

@<TRIPOS>ATOM
      1 C          59.3549   88.5882    7.6519 C.3     1  UNL1        0.0760
      2 N          58.5169   89.4301    6.7359 N.am    1  UNL1       -0.3042
      3 C          59.1747   90.3101    5.7147 C.2     1  UNL1        0.2429
      4 O          60.6705   90.3481    5.6094 O.2     1  UNL1       -0.2732
      5 H          57.5352   89.4051    6.8051 H       1  UNL1        0.1494
      6 CA         58.3367   91.1519    4.7987 C.3     1  UNL1        0.1793
      7 N          58.9228   91.6865    3.5256 N.am    1  UNL1       -0.2805
      8 C          59.4798   93.0787    3.4829 C.2     1  UNL1        0.3045
      9 O          59.4507   93.9361    4.7134 O.2     1  UNL1       -0.2526
     10 N          60.0659   93.6133    2.2099 N.am    1  UNL1       -0.2612
     11 H          58.9419   91.1237    2.7181 H       1  UNL1        0.1514
     12 C          60.0950   92.7558    0.9795 C.3     1  UNL1        0.0773
     13 C          60.8349   91.8349    0.0550 C.3     1  UNL1        0.0216
     14 C          59.4055   92.1915   -0.2272 C.3     1  UNL1        0.0216
     15 C          60.6229   95.0054    2.1672 C.3     1  UNL1        0.1296
     16 C          61.7770   95.3241    1.2636 C.ar    1  UNL1        0.0479
     17 C          63.1874   94.8417    1.4312 C.ar    1  UNL1        0.1033
     18 N          64.0054   95.4005    0.3049 N.ar    1  UNL1       -0.2350
     19 C          63.1005   96.2283   -0.5589 C.ar    1  UNL1        0.1343
     20 S          61.7233   96.1810    0.0336 S.2     1  UNL1       -0.0671
     21 C          56.9127   91.4592    5.1558 C.3     1  UNL1        0.1661
     22 O          55.9040   90.3519    5.2365 O.3     1  UNL1       -0.3798
     23 H          55.7714   89.9705    4.3545 H       1  UNL1        0.2105
     24 C          59.2355   87.0934    7.6155 C.3     1  UNL1        0.0459
     25 C          60.4692   86.2443    7.5300 C.ar    1  UNL1       -0.0205
     26 C          60.5979   85.2156    6.4460 C.ar    1  UNL1       -0.0042
     27 C          61.8315   84.3666    6.3605 C.ar    1  UNL1       -0.0003
     28 C          62.9363   84.5462    7.3590 C.ar    1  UNL1       -0.0000
     29 C          62.8076   85.5749    8.4430 C.ar    1  UNL1       -0.0003
     30 C          61.5740   86.4240    8.5285 C.ar    1  UNL1       -0.0042
     31 C          60.3124   89.2412    8.6043 C.3     1  UNL1        0.0216
     32 C          59.8533   89.6355    9.9767 C.3     1  UNL1        0.0217
     33 C          60.4980   89.0273   11.1868 C.3     1  UNL1        0.0792
     34 O          63.0178   87.6042   11.9778 O.2     1  UNL1       -0.2264
     35 C          61.7523   86.8271   11.7667 C.2     1  UNL1        0.4019
     36 N          60.4924   87.5386   11.3712 N.am    1  UNL1       -0.2720
     37 H          59.6618   87.0286   11.2326 H       1  UNL1        0.1527
     38 O          61.7467   85.3385   11.9511 O.3     1  UNL1       -0.4291
     39 C          62.8387   84.6761   12.7376 C.3     1  UNL1        0.2447
     40 C          62.7077   83.2362   13.1370 C.ar    1  UNL1        0.0714
     41 C          62.3842   82.7282   14.5108 C.ar    1  UNL1        0.1053
     42 N          62.3538   81.2295   14.4556 N.ar    1  UNL1       -0.2350
     43 C          62.6586   80.8112   13.0477 C.ar    1  UNL1        0.1343
     44 S          62.8773   82.0514   12.2328 S.2     1  UNL1       -0.0652
     45 C          61.1483   89.9076   12.2126 C.3     1  UNL1        0.0460
     46 C          62.4183   90.6337   11.8810 C.ar    1  UNL1       -0.0205
     47 C          62.6934   91.0569   10.4685 C.ar    1  UNL1       -0.0042
     48 C          63.9634   91.7830   10.1369 C.ar    1  UNL1       -0.0003
     49 C          64.9583   92.0859   11.2178 C.ar    1  UNL1       -0.0000
     50 C          64.6832   91.6626   12.6304 C.ar    1  UNL1       -0.0003
     51 C          63.4133   90.9365   12.9620 C.ar    1  UNL1       -0.0042
@<TRIPOS>BOND
     1    34    35    2
     2    35    36   am
     3    36    33    1
     4    33    32    1
     5    32    31    1
     6     1    31    1
     7     1    24    1
     8    24    25    1
     9    25    26   ar
    10    26    27   ar
    11    27    28   ar
    12    28    29   ar
    13    29    30   ar
    14     1     2    1
    15     2     3   am
    16     3     4    2
    17     3     6    1
    18     6    21    1
    19    21    22    1
    20     6     7    1
    21     7     8   am
    22     8     9    2
    23     8    10   am
    24    10    15    1
    25    15    16    1
    26    16    17   ar
    27    17    18   ar
    28    18    19   ar
    29    19    20   ar
    30    10    12    1
    31    12    13    1
    32    13    14    1
    33    33    45    1
    34    45    46    1
    35    46    47   ar
    36    47    48   ar
    37    48    49   ar
    38    49    50   ar
    39    50    51   ar
    40    35    38    1
    41    38    39    1
    42    39    40    1
    43    40    41   ar
    44    41    42   ar
    45    42    43   ar
    46    43    44   ar
    47    30    25   ar
    48    20    16   ar
    49    14    12    1
    50    51    46   ar
    51    44    40   ar
    52    36    37    1
    53     2     5    1
    54    22    23    1
    55     7    11    1
@<TRIPOS>MOLECULE
*****
 51 55 0 0 0
SMALL
GASTEIGER

@<TRIPOS>ATOM
      1 C          61.3106   86.6531   11.1670 C.3     1  UNL1        0.0760
      2 N          61.3321   88.0295   11.7628 N.am    1  UNL1       -0.3042
      3 C          62.0733   89.1348   11.0706 C.2     1  UNL1        0.2429
      4 O          62.7928   88.8637    9.7828 O.2     1  UNL1       -0.2732
      5 H          60.8598   88.2074   12.6081 H       1  UNL1        0.1494
      6 CA         62.0948   90.5113   11.6664 C.3     1  UNL1        0.1793
      7 N          63.3869   91.0980   12.1526 N.am    1  UNL1       -0.2805
      8 C          64.3229   91.7572   11.1835 C.2     1  UNL1        0.3045
      9 O          63.9667   91.8298    9.7281 O.2     1  UNL1       -0.2526
     10 N          65.6149   92.3439   11.6696 N.am    1  UNL1       -0.2612
     11 H          63.6206   91.0503   13.1078 H       1  UNL1        0.1514
     12 C          65.9710   92.2713   13.1249 C.3     1  UNL1        0.0773
     13 C          65.9209   92.8561   14.5053 C.3     1  UNL1        0.0216
     14 C          66.6380   91.5608   14.2652 C.3     1  UNL1        0.0216
     15 C          66.5509   93.0032   10.7004 C.3     1  UNL1        0.1296
     16 C          66.5962   94.4992   10.6010 C.ar    1  UNL1        0.0479
     17 C          66.1324   95.4669   11.6491 C.ar    1  UNL1        0.1033
     18 N          66.3627   96.8560   11.1320 N.ar    1  UNL1       -0.2350
     19 C          66.9688   96.7467    9.7642 C.ar    1  UNL1        0.1343
     20 S          67.1131   95.2902    9.4361 S.2     1  UNL1       -0.0671
     21 C          60.8242   91.3010   11.7761 C.3     1  UNL1        0.1661
     22 O          59.4990   90.5996   11.7323 O.3     1  UNL1       -0.3798
     23 H          59.3703   90.2061   10.8551 H       1  UNL1        0.2105
     24 C          60.5124   86.3856    9.9255 C.3     1  UNL1        0.0459
     25 C          61.1757   85.7822    8.7229 C.ar    1  UNL1       -0.0205
     26 C          60.3659   85.4617    7.5016 C.ar    1  UNL1       -0.0042
     27 C          61.0291   84.8583    6.2991 C.ar    1  UNL1       -0.0003
     28 C          62.5021   84.5756    6.3178 C.ar    1  UNL1       -0.0000
     29 C          63.3119   84.8962    7.5391 C.ar    1  UNL1       -0.0003
     30 C          62.6486   85.4995    8.7416 C.ar    1  UNL1       -0.0042
     31 C          62.0873   85.5441   11.8127 C.3     1  UNL1        0.0216
     32 C          63.4990   85.7798   12.2618 C.3     1  UNL1        0.0217
     33 C          63.9926   85.1651   13.5379 C.3     1  UNL1        0.0792
     34 O          61.6833   84.5541   15.3529 O.2     1  UNL1       -0.2264
     35 C          62.4976   83.4359   14.7728 C.2     1  UNL1        0.4019
     36 N          63.6523   83.7414   13.8653 N.am    1  UNL1       -0.2720
     37 H          64.1867   83.0074   13.4846 H       1  UNL1        0.1527
     38 O          62.1573   82.0122   15.1003 O.3     1  UNL1       -0.4291
     39 C          61.4471   81.1596   14.0910 C.3     1  UNL1        0.2447
     40 C          62.1026   80.8481   12.7782 C.ar    1  UNL1        0.0714
     41 C          62.5327   81.8498   11.7478 C.ar    1  UNL1        0.1053
     42 N          63.1390   81.1011   10.5981 N.ar    1  UNL1       -0.2350
     43 C          63.0836   79.6366   10.9180 C.ar    1  UNL1        0.1343
     44 S          62.4431   79.4803   12.2653 S.2     1  UNL1       -0.0652
     45 C          64.8265   85.9742   14.4866 C.3     1  UNL1        0.0460
     46 C          64.2334   87.1665   15.1769 C.ar    1  UNL1       -0.0205
     47 C          63.5427   87.0015   16.4982 C.ar    1  UNL1       -0.0042
     48 C          62.9496   88.1938   17.1885 C.ar    1  UNL1       -0.0003
     49 C          63.0471   89.5512   16.5576 C.ar    1  UNL1       -0.0000
     50 C          63.7378   89.7162   15.2363 C.ar    1  UNL1       -0.0003
     51 C          64.3309   88.5239   14.5460 C.ar    1  UNL1       -0.0042
@<TRIPOS>BOND
     1    34    35    2
     2    35    36   am
     3    36    33    1
     4    33    32    1
     5    32    31    1
     6     1    31    1
     7     1    24    1
     8    24    25    1
     9    25    26   ar
    10    26    27   ar
    11    27    28   ar
    12    28    29   ar
    13    29    30   ar
    14     1     2    1
    15     2     3   am
    16     3     4    2
    17     3     6    1
    18     6    21    1
    19    21    22    1
    20     6     7    1
    21     7     8   am
    22     8     9    2
    23     8    10   am
    24    10    15    1
    25    15    16    1
    26    16    17   ar
    27    17    18   ar
    28    18    19   ar
    29    19    20   ar
    30    10    12    1
    31    12    13    1
    32    13    14    1
    33    33    45    1
    34    45    46    1
    35    46    47   ar
    36    47    48   ar
    37    48    49   ar
    38    49    50   ar
    39    50    51   ar
    40    35    38    1
    41    38    39    1
    42    39    40    1
    43    40    41   ar
    44    41    42   ar
    45    42    43   ar
    46    43    44   ar
    47    30    25   ar
    48    20    16   ar
    49    14    12    1
    50    51    46   ar
    51    44    40   ar
    52    36    37    1
    53     2     5    1
    54    22    23    1
    55     7    11    1
@<TRIPOS>MOLECULE
*****
 51 55 0 0 0
SMALL
GASTEIGER

@<TRIPOS>ATOM
      1 C          62.6613   90.4503   10.9787 C.3     1  UNL1        0.0760
      2 N          63.1405   89.2800   11.7853 N.am    1  UNL1       -0.3042
      3 C          63.2549   89.3934   13.2767 C.2     1  UNL1        0.2429
      4 O          62.8900   90.6771   13.9614 O.2     1  UNL1       -0.2732
      5 H          63.3800   88.4374   11.3359 H       1  UNL1        0.1494
      6 CA         63.7341   88.2231   14.0833 C.3     1  UNL1        0.1793
      7 N          63.6541   86.8372   13.5148 N.am    1  UNL1       -0.2805
      8 C          63.5050   85.6585   14.4304 C.2     1  UNL1        0.3045
      9 O          63.4359   85.8655   15.9144 O.2     1  UNL1       -0.2526
     10 N          63.4250   84.2727   13.8619 N.am    1  UNL1       -0.2612
     11 H          63.6995   86.7013   12.5408 H       1  UNL1        0.1514
     12 C          63.4941   84.0656   12.3778 C.3     1  UNL1        0.0773
     13 C          64.2704   83.6736   11.1557 C.3     1  UNL1        0.0216
     14 C          62.8375   84.0990   11.0296 C.3     1  UNL1        0.0216
     15 C          63.2759   83.0939   14.7775 C.3     1  UNL1        0.1296
     16 C          62.6699   81.8200   14.2674 C.ar    1  UNL1        0.0479
     17 C          61.2182   81.4473   14.3300 C.ar    1  UNL1        0.1033
     18 N          61.0603   80.0922   13.7066 N.ar    1  UNL1       -0.2350
     19 C          62.4144   79.6274   13.2587 C.ar    1  UNL1        0.1343
     20 S          63.4091   80.6953   13.6053 S.2     1  UNL1       -0.0671
     21 C          64.2933   88.4385   15.4583 C.3     1  UNL1        0.1661
     22 O          63.3869   88.8487   16.5809 O.3     1  UNL1       -0.3798
     23 H          63.0379   89.7368   16.4066 H       1  UNL1        0.2105
     24 C          63.6369   91.2553   10.1723 C.3     1  UNL1        0.0459
     25 C          64.5635   92.2159   10.8571 C.ar    1  UNL1       -0.0205
     26 C          64.9938   91.9636   12.2716 C.ar    1  UNL1       -0.0042
     27 C          65.9203   92.9241   12.9563 C.ar    1  UNL1       -0.0003
     28 C          66.4166   94.1369   12.2264 C.ar    1  UNL1       -0.0000
     29 C          65.9862   94.3892   10.8118 C.ar    1  UNL1       -0.0003
     30 C          65.0597   93.4287   10.1271 C.ar    1  UNL1       -0.0042
     31 C          61.2064   90.8157   10.9784 C.3     1  UNL1        0.0216
     32 C          60.1675   89.7578   10.7516 C.3     1  UNL1        0.0217
     33 C          60.2648   88.8549    9.5578 C.3     1  UNL1        0.0792
     34 O          58.2189   88.1269    7.4879 O.2     1  UNL1       -0.2264
     35 C          59.3281   89.0764    7.1446 C.2     1  UNL1        0.4019
     36 N          60.3511   89.4405    8.1796 N.am    1  UNL1       -0.2720
     37 H          61.0791   90.0637    7.9542 H       1  UNL1        0.1527
     38 O          59.4144   89.6621    5.7663 O.3     1  UNL1       -0.4291
     39 C          59.4090   91.1507    5.5823 C.3     1  UNL1        0.2447
     40 C          60.1545   91.7674    4.4360 C.ar    1  UNL1        0.0714
     41 C          61.5753   91.4789    4.0511 C.ar    1  UNL1        0.1053
     42 N          61.9090   92.3141    2.8506 N.ar    1  UNL1       -0.2350
     43 C          60.6946   93.1188    2.4937 C.ar    1  UNL1        0.1343
     44 S          59.6102   92.7809    3.4735 S.2     1  UNL1       -0.0652
     45 C          60.2758   87.3662    9.7422 C.3     1  UNL1        0.0460
     46 C          61.0634   86.5001    8.8045 C.ar    1  UNL1       -0.0205
     47 C          60.3602   85.7250    7.7300 C.ar    1  UNL1       -0.0042
     48 C          61.1478   84.8589    6.7922 C.ar    1  UNL1       -0.0003
     49 C          62.6388   84.7679    6.9289 C.ar    1  UNL1       -0.0000
     50 C          63.3422   85.5431    8.0034 C.ar    1  UNL1       -0.0003
     51 C          62.5545   86.4092    8.9412 C.ar    1  UNL1       -0.0042
@<TRIPOS>BOND
     1    34    35    2
     2    35    36   am
     3    36    33    1
     4    33    32    1
     5    32    31    1
     6     1    31    1
     7     1    24    1
     8    24    25    1
     9    25    26   ar
    10    26    27   ar
    11    27    28   ar
    12    28    29   ar
    13    29    30   ar
    14     1     2    1
    15     2     3   am
    16     3     4    2
    17     3     6    1
    18     6    21    1
    19    21    22    1
    20     6     7    1
    21     7     8   am
    22     8     9    2
    23     8    10   am
    24    10    15    1
    25    15    16    1
    26    16    17   ar
    27    17    18   ar
    28    18    19   ar
    29    19    20   ar
    30    10    12    1
    31    12    13    1
    32    13    14    1
    33    33    45    1
    34    45    46    1
    35    46    47   ar
    36    47    48   ar
    37    48    49   ar
    38    49    50   ar
    39    50    51   ar
    40    35    38    1
    41    38    39    1
    42    39    40    1
    43    40    41   ar
    44    41    42   ar
    45    42    43   ar
    46    43    44   ar
    47    30    25   ar
    48    20    16   ar
    49    14    12    1
    50    51    46   ar
    51    44    40   ar
    52    36    37    1
    53     2     5    1
    54    22    23    1
    55     7    11    1
@<TRIPOS>MOLECULE
*****
 51 55 0 0 0
SMALL
GASTEIGER

@<TRIPOS>ATOM
      1 C          63.4378   86.6477   13.0924 C.3     1  UNL1        0.0760
      2 N          63.8397   88.0230   13.5361 N.am    1  UNL1       -0.3042
      3 C          63.7379   88.4038   14.9834 C.2     1  UNL1        0.2429
      4 O          63.2342   87.4093   15.9870 O.2     1  UNL1       -0.2732
      5 H          64.1703   88.6758   12.8774 H       1  UNL1        0.1494
      6 CA         64.1398   89.7792   15.4271 C.3     1  UNL1        0.1793
      7 N          65.1623   90.5503   14.6461 N.am    1  UNL1       -0.2805
      8 C          64.7755   91.2209   13.3613 C.2     1  UNL1        0.3045
      9 O          63.3661   91.1204   12.8576 O.2     1  UNL1       -0.2526
     10 N          65.7979   91.9920   12.5803 N.am    1  UNL1       -0.2612
     11 H          66.0873   90.6162   14.9767 H       1  UNL1        0.1514
     12 C          67.2073   92.0925   13.0841 C.3     1  UNL1        0.0773
     13 C          68.6778   91.8775   12.8810 C.3     1  UNL1        0.0216
     14 C          68.1777   92.4816   14.1596 C.3     1  UNL1        0.0216
     15 C          65.4111   92.6626   11.2956 C.3     1  UNL1        0.1296
     16 C          66.3141   93.6939   10.6863 C.ar    1  UNL1        0.0479
     17 C          67.4719   93.4223    9.7720 C.ar    1  UNL1        0.1033
     18 N          68.0913   94.7383    9.4050 N.ar    1  UNL1       -0.2350
     19 C          67.3162   95.8231   10.0924 C.ar    1  UNL1        0.1343
     20 S          66.2179   95.1776   10.8843 S.2     1  UNL1       -0.0671
     21 C          63.5193   90.3834   16.6517 C.3     1  UNL1        0.1661
     22 O          63.4983   91.8733   16.8247 O.3     1  UNL1       -0.3798
     23 H          64.4062   92.1999   16.9247 H       1  UNL1        0.2105
     24 C          63.9375   85.4441   13.8351 C.3     1  UNL1        0.0459
     25 C          63.4347   84.0777   13.4739 C.ar    1  UNL1       -0.0205
     26 C          63.8315   83.4533   12.1690 C.ar    1  UNL1       -0.0042
     27 C          63.3287   82.0871   11.8078 C.ar    1  UNL1       -0.0003
     28 C          62.4293   81.3452   12.7515 C.ar    1  UNL1       -0.0000
     29 C          62.0325   81.9695   14.0564 C.ar    1  UNL1       -0.0003
     30 C          62.5353   83.3358   14.4175 C.ar    1  UNL1       -0.0042
     31 C          62.5361   86.4759   11.9059 C.3     1  UNL1        0.0216
     32 C          62.4023   87.5801   10.8996 C.3     1  UNL1        0.0217
     33 C          61.4235   87.4511    9.7704 C.3     1  UNL1        0.0792
     34 O          58.7762   87.4288    8.3591 O.2     1  UNL1       -0.2264
     35 C          59.6265   88.6643    8.3388 C.2     1  UNL1        0.4019
     36 N          60.9502   88.6755    9.0445 N.am    1  UNL1       -0.2720
     37 H          61.5083   89.4864    9.0312 H       1  UNL1        0.1527
     38 O          59.1533   89.8886    7.6129 O.3     1  UNL1       -0.4291
     39 C          58.7584   89.7986    6.1686 C.3     1  UNL1        0.2447
     40 C          59.2001   90.8578    5.2028 C.ar    1  UNL1        0.0714
     41 C          58.3096   91.8466    4.5106 C.ar    1  UNL1        0.1053
     42 N          59.1691   92.7142    3.6396 N.ar    1  UNL1       -0.2350
     43 C          60.5908   92.2616    3.7935 C.ar    1  UNL1        0.1343
     44 S          60.6100   91.1143    4.7596 S.2     1  UNL1       -0.0652
     45 C          60.9179   86.0977    9.3670 C.3     1  UNL1        0.0460
     46 C          61.4105   85.4594    8.1021 C.ar    1  UNL1       -0.0205
     47 C          60.4359   85.0643    7.0325 C.ar    1  UNL1       -0.0042
     48 C          60.9286   84.4260    5.7676 C.ar    1  UNL1       -0.0003
     49 C          62.3958   84.1828    5.5724 C.ar    1  UNL1       -0.0000
     50 C          63.3704   84.5779    6.6420 C.ar    1  UNL1       -0.0003
     51 C          62.8778   85.2162    7.9069 C.ar    1  UNL1       -0.0042
@<TRIPOS>BOND
     1    34    35    2
     2    35    36   am
     3    36    33    1
     4    33    32    1
     5    32    31    1
     6     1    31    1
     7     1    24    1
     8    24    25    1
     9    25    26   ar
    10    26    27   ar
    11    27    28   ar
    12    28    29   ar
    13    29    30   ar
    14     1     2    1
    15     2     3   am
    16     3     4    2
    17     3     6    1
    18     6    21    1
    19    21    22    1
    20     6     7    1
    21     7     8   am
    22     8     9    2
    23     8    10   am
    24    10    15    1
    25    15    16    1
    26    16    17   ar
    27    17    18   ar
    28    18    19   ar
    29    19    20   ar
    30    10    12    1
    31    12    13    1
    32    13    14    1
    33    33    45    1
    34    45    46    1
    35    46    47   ar
    36    47    48   ar
    37    48    49   ar
    38    49    50   ar
    39    50    51   ar
    40    35    38    1
    41    38    39    1
    42    39    40    1
    43    40    41   ar
    44    41    42   ar
    45    42    43   ar
    46    43    44   ar
    47    30    25   ar
    48    20    16   ar
    49    14    12    1
    50    51    46   ar
    51    44    40   ar
    52    36    37    1
    53     2     5    1
    54    22    23    1
    55     7    11    1
@<TRIPOS>MOLECULE
*****
 51 55 0 0 0
SMALL
GASTEIGER

@<TRIPOS>ATOM
      1 C          62.6074   87.8026   11.4198 C.3     1  UNL1        0.0760
      2 N          63.3849   88.4317   12.5377 N.am    1  UNL1       -0.3042
      3 C          62.7243   89.4300   13.4417 C.2     1  UNL1        0.2429
      4 O          61.2863   89.7991   13.2279 O.2     1  UNL1       -0.2732
      5 H          64.3288   88.1895   12.6780 H       1  UNL1        0.1494
      6 CA         63.5019   90.0591   14.5596 C.3     1  UNL1        0.1793
      7 N          64.6405   90.9861   14.2523 N.am    1  UNL1       -0.2805
      8 C          64.6220   91.8062   12.9964 C.2     1  UNL1        0.3045
      9 O          63.4648   91.6993   12.0479 O.2     1  UNL1       -0.2526
     10 N          65.7605   92.7331   12.6891 N.am    1  UNL1       -0.2612
     11 H          65.3999   91.0562   14.8748 H       1  UNL1        0.1514
     12 C          66.9177   92.8400   13.6377 C.3     1  UNL1        0.0773
     13 C          68.2682   92.3761   14.0967 C.3     1  UNL1        0.0216
     14 C          67.5712   93.4891   14.8215 C.3     1  UNL1        0.0216
     15 C          65.7420   93.5532   11.4333 C.3     1  UNL1        0.1296
     16 C          66.8032   93.3542   10.3919 C.ar    1  UNL1        0.0479
     17 C          67.1564   94.3177    9.2978 C.ar    1  UNL1        0.1033
     18 N          68.2690   93.7159    8.4915 N.ar    1  UNL1       -0.2350
     19 C          68.6033   92.3805    9.0873 C.ar    1  UNL1        0.1343
     20 S          67.6974   92.1570   10.2618 S.2     1  UNL1       -0.0671
     21 C          63.1408   89.7614   15.9847 C.3     1  UNL1        0.1661
     22 O          61.7742   89.2415   16.3192 O.3     1  UNL1       -0.3798
     23 H          61.1121   89.9227   16.1231 H       1  UNL1        0.2105
     24 C          62.3700   88.5645   10.1497 C.3     1  UNL1        0.0459
     25 C          61.2951   88.1241    9.2006 C.ar    1  UNL1       -0.0205
     26 C          60.2650   89.1058    8.7263 C.ar    1  UNL1       -0.0042
     27 C          59.1902   88.6653    7.7772 C.ar    1  UNL1       -0.0003
     28 C          59.1455   87.2432    7.3025 C.ar    1  UNL1       -0.0000
     29 C          60.1756   86.2614    7.7768 C.ar    1  UNL1       -0.0003
     30 C          61.2504   86.7019    8.7259 C.ar    1  UNL1       -0.0042
     31 C          62.0671   86.4115   11.5721 C.3     1  UNL1        0.0216
     32 C          62.7420   85.2649   10.8794 C.3     1  UNL1        0.0217
     33 C          63.2768   84.1149   11.6802 C.3     1  UNL1        0.0792
     34 O          64.8488   82.3983    9.7875 O.2     1  UNL1       -0.2264
     35 C          63.6081   81.8588   10.4351 C.2     1  UNL1        0.4019
     36 N          62.8220   82.7171   11.3814 N.am    1  UNL1       -0.2720
     37 H          62.0076   82.3629   11.8064 H       1  UNL1        0.1527
     38 O          63.1533   80.4610   10.1362 O.3     1  UNL1       -0.4291
     39 C          62.7778   79.5385   11.2579 C.3     1  UNL1        0.2447
     40 C          62.5151   80.0911   12.6274 C.ar    1  UNL1        0.0714
     41 C          63.5552   80.4776   13.6367 C.ar    1  UNL1        0.1053
     42 N          62.8490   80.9796   14.8612 N.ar    1  UNL1       -0.2350
     43 C          61.3723   80.9033   14.6086 C.ar    1  UNL1        0.1343
     44 S          61.1660   80.3542   13.2280 S.2     1  UNL1       -0.0652
     45 C          64.2665   84.3626   12.7799 C.3     1  UNL1        0.0460
     46 C          63.7968   84.8678   14.1119 C.ar    1  UNL1       -0.0205
     47 C          64.5294   85.9871   14.7903 C.ar    1  UNL1       -0.0042
     48 C          64.0597   86.4923   16.1223 C.ar    1  UNL1       -0.0003
     49 C          62.8573   85.8781   16.7758 C.ar    1  UNL1       -0.0000
     50 C          62.1246   84.7587   16.0974 C.ar    1  UNL1       -0.0003
     51 C          62.5944   84.2535   14.7654 C.ar    1  UNL1       -0.0042
@<TRIPOS>BOND
     1    34    35    2
     2    35    36   am
     3    36    33    1
     4    33    32    1
     5    32    31    1
     6     1    31    1
     7     1    24    1
     8    24    25    1
     9    25    26   ar
    10    26    27   ar
    11    27    28   ar
    12    28    29   ar
    13    29    30   ar
    14     1     2    1
    15     2     3   am
    16     3     4    2
    17     3     6    1
    18     6    21    1
    19    21    22    1
    20     6     7    1
    21     7     8   am
    22     8     9    2
    23     8    10   am
    24    10    15    1
    25    15    16    1
    26    16    17   ar
    27    17    18   ar
    28    18    19   ar
    29    19    20   ar
    30    10    12    1
    31    12    13    1
    32    13    14    1
    33    33    45    1
    34    45    46    1
    35    46    47   ar
    36    47    48   ar
    37    48    49   ar
    38    49    50   ar
    39    50    51   ar
    40    35    38    1
    41    38    39    1
    42    39    40    1
    43    40    41   ar
    44    41    42   ar
    45    42    43   ar
    46    43    44   ar
    47    30    25   ar
    48    20    16   ar
    49    14    12    1
    50    51    46   ar
    51    44    40   ar
    52    36    37    1
    53     2     5    1
    54    22    23    1
    55     7    11    1
