@<TRIPOS>MOLECULE
*****
 47 53 0 0 0
SMALL
GASTEIGER

@<TRIPOS>ATOM
      1 C          56.2947   91.4692    4.9429 C.3     1  UNL1        0.0312
      2 C          57.7689   91.2198    5.0626 C.2     1  UNL1        0.0136
      3 C          58.2962   90.3576    6.1709 C.2     1  UNL1        0.0107
      4 C          59.7703   90.1082    6.2907 C.2     1  UNL1        0.0509
      5 C          60.7175   90.7211    5.3020 C.2     1  UNL1        0.0613
      6 C          60.1903   91.5834    4.1936 C.2     1  UNL1        0.2246
      7 N          60.8764   92.3163    3.0792 N.2     1  UNL1       -0.0378
      8 C          59.8261   93.0186    2.2707 C.2     1  UNL1        0.3605
      9 N          58.4909   92.7198    2.8854 N.2     1  UNL1       -0.0547
     10 C          58.7160   91.8327    4.0739 C.3     1  UNL1        0.2976
     11 C          60.0685   93.8703    1.0599 C.3     1  UNL1        0.2246
     12 C          59.5020   93.4643   -0.2683 C.2     1  UNL1        0.0436
     13 C          59.7445   94.3161   -1.4790 C.2     1  UNL1        0.0288
     14 C          60.5533   95.5738   -1.3615 C.2     1  UNL1        0.0896
     15 N          61.1198   95.9798   -0.0333 N.am    1  UNL1       -0.1770
     16 C          60.8774   95.1281    1.1774 C.2     1  UNL1        0.2627
     17 O          61.4439   95.5341    2.5056 O.2     1  UNL1       -0.2719
     18 N          58.6931   92.2066   -0.3859 N.pl3   1  UNL1       -0.3329
     19 H          59.0947   91.3392   -0.1501 H       1  UNL1        0.1466
     20 C          57.2724   92.2704   -0.8627 C.3     1  UNL1        0.1211
     21 C          56.9786   92.4344   -2.3245 C.3     1  UNL1        0.1522
     22 O          57.5580   91.4721   -3.3186 O.3     1  UNL1       -0.3783
     23 H          58.0937   90.8105   -2.8537 H       1  UNL1        0.2109
     24 C          56.1053   93.5608   -2.7921 C.ar    1  UNL1        0.0067
     25 C          56.1579   94.0061   -4.2235 C.ar    1  UNL1       -0.0018
     26 C          55.2847   95.1325   -4.6911 C.ar    1  UNL1        0.0006
     27 C          54.3586   95.8135   -3.7274 C.ar    1  UNL1        0.0114
     28 C          54.3060   95.3681   -2.2961 C.ar    1  UNL1        0.0574
     29 CL         53.3800   96.0491   -1.3324 Cl      1  UNL1       -0.0823
     30 C          55.1793   94.2418   -1.8284 C.ar    1  UNL1        0.0095
     31 N          60.2976   89.2459    7.3991 N.pl3   1  UNL1       -0.3073
     32 C          60.1317   87.7565    7.3343 C.3     1  UNL1        0.0922
     33 C          60.6589   86.8942    8.4427 C.3     1  UNL1        0.0374
     34 C          61.3520   87.5213    9.6158 C.3     1  UNL1        0.0610
     35 C          61.5180   89.0107    9.6806 C.3     1  UNL1        0.0374
     36 C          60.9908   89.8730    8.5722 C.3     1  UNL1        0.0922
     37 N          61.8793   86.6591   10.7242 N.3     1  UNL1       -0.2710
     38 C          61.6564   85.1761   10.6916 C.3     1  UNL1        0.0939
     39 C          62.1836   84.3138   11.7999 C.3     1  UNL1        0.1107
     40 N          62.9337   84.9345   12.9410 N.am    1  UNL1       -0.2767
     41 C          63.4609   84.0723   14.0494 C.2     1  UNL1        0.2252
     42 O          64.2110   84.6930   15.1905 O.2     1  UNL1       -0.2749
     43 C          63.1565   86.4175   12.9737 C.3     1  UNL1        0.1107
     44 C          62.6293   87.2798   11.8653 C.3     1  UNL1        0.0939
     45 C          63.2381   82.5893   14.0167 C.3     1  UNL1        0.0767
     46 C          62.3286   81.4083   14.1845 C.3     1  UNL1        0.0096
     47 C          63.7615   81.2017   13.7922 C.3     1  UNL1        0.0096
@<TRIPOS>BOND
     1     1     2    1
     2     2     3    2
     3     3     4    1
     4     4    31    1
     5    31    32    1
     6    32    33    1
     7    33    34    1
     8    34    37    1
     9    37    38    1
    10    38    39    1
    11    39    40    1
    12    40    41   am
    13    41    42    2
    14    41    45    1
    15    45    46    1
    16    46    47    1
    17    40    43    1
    18    43    44    1
    19    34    35    1
    20    35    36    1
    21     4     5    2
    22     5     6    1
    23     6     7    2
    24     7     8    1
    25     8    11    1
    26    11    12    1
    27    12    18    1
    28    18    20    1
    29    20    21    1
    30    21    22    1
    31    21    24    1
    32    24    25   ar
    33    25    26   ar
    34    26    27   ar
    35    27    28   ar
    36    28    29    1
    37    28    30   ar
    38    12    13    2
    39    13    14    1
    40    14    15    2
    41    15    16    1
    42    16    17    2
    43     8     9    2
    44     9    10    1
    45    10     2    1
    46    36    31    1
    47    10     6    1
    48    44    37    1
    49    16    11    1
    50    47    45    1
    51    30    24   ar
    52    18    19    1
    53    22    23    1
@<TRIPOS>MOLECULE
*****
 47 53 0 0 0
SMALL
GASTEIGER

@<TRIPOS>ATOM
      1 C          56.2827   91.4483    4.9539 C.3     1  UNL1        0.0312
      2 C          57.7595   91.2166    5.0790 C.2     1  UNL1        0.0136
      3 C          58.2920   90.3497    6.1812 C.2     1  UNL1        0.0107
      4 C          59.7686   90.1181    6.3062 C.2     1  UNL1        0.0509
      5 C          60.7129   90.7533    5.3291 C.2     1  UNL1        0.0613
      6 C          60.1804   91.6203    4.2269 C.2     1  UNL1        0.2246
      7 N          60.8629   92.3735    3.1238 N.2     1  UNL1       -0.0378
      8 C          59.8079   93.0707    2.3169 C.2     1  UNL1        0.3605
      9 N          58.4734   92.7483    2.9214 N.2     1  UNL1       -0.0547
     10 C          58.7037   91.8519    4.1018 C.3     1  UNL1        0.2976
     11 C          60.0456   93.9380    1.1164 C.3     1  UNL1        0.2246
     12 C          61.2551   94.8232    1.0583 C.2     1  UNL1        0.0436
     13 C          61.4928   95.6905   -0.1423 C.2     1  UNL1        0.0288
     14 C          60.5209   95.6726   -1.2847 C.2     1  UNL1        0.0896
     15 N          59.3114   94.7874   -1.2266 N.am    1  UNL1       -0.1770
     16 C          59.0738   93.9201   -0.0260 C.2     1  UNL1        0.2627
     17 O          57.8643   93.0348    0.0320 O.2     1  UNL1       -0.2719
     18 N          62.2270   94.8412    2.2007 N.pl3   1  UNL1       -0.3329
     19 H          61.9020   94.7447    3.1250 H       1  UNL1        0.1466
     20 C          63.6940   95.0063    1.9350 C.3     1  UNL1        0.1211
     21 C          64.3935   94.0778    0.9871 C.3     1  UNL1        0.1522
     22 O          65.0178   92.8137    1.4992 O.3     1  UNL1       -0.3783
     23 H          64.8797   92.7499    2.4572 H       1  UNL1        0.2109
     24 C          64.4688   94.4134   -0.4730 C.ar    1  UNL1        0.0067
     25 C          65.1297   95.6845   -0.9173 C.ar    1  UNL1       -0.0018
     26 C          65.2050   96.0202   -2.3773 C.ar    1  UNL1        0.0006
     27 C          64.6193   95.0847   -3.3931 C.ar    1  UNL1        0.0114
     28 C          63.9583   93.8136   -2.9488 C.ar    1  UNL1        0.0574
     29 CL         63.3726   92.8781   -3.9646 Cl      1  UNL1       -0.0823
     30 C          63.8831   93.4780   -1.4888 C.ar    1  UNL1        0.0095
     31 N          60.3011   89.2511    7.4085 N.pl3   1  UNL1       -0.3073
     32 C          60.1618   87.7600    7.3237 C.3     1  UNL1        0.0922
     33 C          60.6943   86.8930    8.4259 C.3     1  UNL1        0.0374
     34 C          61.3661   87.5172    9.6129 C.3     1  UNL1        0.0610
     35 C          61.5054   89.0083    9.6978 C.3     1  UNL1        0.0374
     36 C          60.9729   89.8753    8.5956 C.3     1  UNL1        0.0922
     37 N          61.8986   86.6504   10.7152 N.3     1  UNL1       -0.2710
     38 C          61.6705   85.1682   10.6804 C.3     1  UNL1        0.0939
     39 C          62.2029   84.3012   11.7826 C.3     1  UNL1        0.1107
     40 N          62.9635   84.9165   12.9197 N.am    1  UNL1       -0.2767
     41 C          63.4960   84.0496   14.0219 C.2     1  UNL1        0.2252
     42 O          64.2567   84.6648   15.1590 O.2     1  UNL1       -0.2749
     43 C          63.1917   86.3986   12.9544 C.3     1  UNL1        0.1107
     44 C          62.6592   87.2656   11.8522 C.3     1  UNL1        0.0939
     45 C          63.2679   82.5675   13.9870 C.3     1  UNL1        0.0767
     46 C          63.7768   81.1805   13.7274 C.3     1  UNL1        0.0096
     47 C          62.3639   81.3872   14.1862 C.3     1  UNL1        0.0096
@<TRIPOS>BOND
     1     1     2    1
     2     2     3    2
     3     3     4    1
     4     4    31    1
     5    31    32    1
     6    32    33    1
     7    33    34    1
     8    34    37    1
     9    37    38    1
    10    38    39    1
    11    39    40    1
    12    40    41   am
    13    41    42    2
    14    41    45    1
    15    45    46    1
    16    46    47    1
    17    40    43    1
    18    43    44    1
    19    34    35    1
    20    35    36    1
    21     4     5    2
    22     5     6    1
    23     6     7    2
    24     7     8    1
    25     8    11    1
    26    11    12    1
    27    12    18    1
    28    18    20    1
    29    20    21    1
    30    21    22    1
    31    21    24    1
    32    24    25   ar
    33    25    26   ar
    34    26    27   ar
    35    27    28   ar
    36    28    29    1
    37    28    30   ar
    38    12    13    2
    39    13    14    1
    40    14    15    2
    41    15    16    1
    42    16    17    2
    43     8     9    2
    44     9    10    1
    45    10     2    1
    46    36    31    1
    47    10     6    1
    48    44    37    1
    49    16    11    1
    50    47    45    1
    51    30    24   ar
    52    18    19    1
    53    22    23    1
@<TRIPOS>MOLECULE
*****
 47 53 0 0 0
SMALL
GASTEIGER

@<TRIPOS>ATOM
      1 C          56.3893   91.4489    4.9755 C.3     1  UNL1        0.0312
      2 C          57.8619   91.1972    5.1098 C.2     1  UNL1        0.0136
      3 C          58.3751   90.3178    6.2112 C.2     1  UNL1        0.0107
      4 C          59.8476   90.0661    6.3455 C.2     1  UNL1        0.0509
      5 C          60.8072   90.6939    5.3784 C.2     1  UNL1        0.0613
      6 C          60.2940   91.5734    4.2770 C.2     1  UNL1        0.2246
      7 N          60.9941   92.3232    3.1826 N.2     1  UNL1       -0.0378
      8 C          59.9542   93.0383    2.3720 C.2     1  UNL1        0.3605
      9 N          58.6113   92.7304    2.9653 N.2     1  UNL1       -0.0547
     10 C          58.8213   91.8250    4.1427 C.3     1  UNL1        0.2976
     11 C          60.2118   93.9085    1.1777 C.3     1  UNL1        0.2246
     12 C          59.2459   93.9123    0.0301 C.2     1  UNL1        0.0436
     13 C          59.5036   94.7825   -1.1642 C.2     1  UNL1        0.0288
     14 C          60.7271   95.6491   -1.2109 C.2     1  UNL1        0.0896
     15 N          61.6930   95.6453   -0.0632 N.am    1  UNL1       -0.1770
     16 C          61.4353   94.7751    1.1311 C.2     1  UNL1        0.2627
     17 O          62.4011   94.7714    2.2787 O.2     1  UNL1       -0.2719
     18 N          58.0224   93.0458    0.0766 N.pl3   1  UNL1       -0.3329
     19 H          57.4505   93.0443    0.8780 H       1  UNL1        0.1466
     20 C          57.6702   92.1815   -1.0977 C.3     1  UNL1        0.1211
     21 C          56.5934   92.6116   -2.0492 C.3     1  UNL1        0.1522
     22 O          55.2563   93.0426   -1.5235 O.3     1  UNL1       -0.3783
     23 H          55.2555   92.9845   -0.5552 H       1  UNL1        0.2109
     24 C          56.8537   92.6107   -3.5264 C.ar    1  UNL1        0.0067
     25 C          56.0891   91.6816   -4.4221 C.ar    1  UNL1       -0.0018
     26 C          56.3494   91.6807   -5.8994 C.ar    1  UNL1        0.0006
     27 C          57.3742   92.6089   -6.4810 C.ar    1  UNL1        0.0114
     28 C          58.1388   93.5379   -5.5853 C.ar    1  UNL1        0.0574
     29 CL         59.1636   94.4661   -6.1669 Cl      1  UNL1       -0.0823
     30 C          57.8785   93.5389   -4.1080 C.ar    1  UNL1        0.0095
     31 N          60.3608   89.1866    7.4470 N.pl3   1  UNL1       -0.3073
     32 C          61.0469   89.7947    8.6343 C.3     1  UNL1        0.0922
     33 C          61.5601   88.9152    9.7357 C.3     1  UNL1        0.0374
     34 C          61.3872   87.4277    9.6499 C.3     1  UNL1        0.0610
     35 C          60.7012   86.8196    8.4626 C.3     1  UNL1        0.0374
     36 C          60.1880   87.6991    7.3612 C.3     1  UNL1        0.0922
     37 N          61.9004   86.5482   10.7513 N.3     1  UNL1       -0.2710
     38 C          61.6910   85.0643   10.6853 C.3     1  UNL1        0.0939
     39 C          62.2041   84.1847   11.7866 C.3     1  UNL1        0.1107
     40 N          62.9266   84.7889   12.9540 N.am    1  UNL1       -0.2767
     41 C          63.4398   83.9094   14.0554 C.2     1  UNL1        0.2252
     42 O          64.1623   84.5136   15.2228 O.2     1  UNL1       -0.2749
     43 C          63.1360   86.2728   13.0200 C.3     1  UNL1        0.1107
     44 C          62.6229   87.1524   11.9187 C.3     1  UNL1        0.0939
     45 C          63.2304   82.4256   13.9894 C.3     1  UNL1        0.0767
     46 C          63.7688   81.0474   13.7430 C.3     1  UNL1        0.0096
     47 C          62.3293   81.2337   14.1213 C.3     1  UNL1        0.0096
@<TRIPOS>BOND
     1     1     2    1
     2     2     3    2
     3     3     4    1
     4     4    31    1
     5    31    32    1
     6    32    33    1
     7    33    34    1
     8    34    37    1
     9    37    38    1
    10    38    39    1
    11    39    40    1
    12    40    41   am
    13    41    42    2
    14    41    45    1
    15    45    46    1
    16    46    47    1
    17    40    43    1
    18    43    44    1
    19    34    35    1
    20    35    36    1
    21     4     5    2
    22     5     6    1
    23     6     7    2
    24     7     8    1
    25     8    11    1
    26    11    12    1
    27    12    18    1
    28    18    20    1
    29    20    21    1
    30    21    22    1
    31    21    24    1
    32    24    25   ar
    33    25    26   ar
    34    26    27   ar
    35    27    28   ar
    36    28    29    1
    37    28    30   ar
    38    12    13    2
    39    13    14    1
    40    14    15    2
    41    15    16    1
    42    16    17    2
    43     8     9    2
    44     9    10    1
    45    10     2    1
    46    36    31    1
    47    10     6    1
    48    44    37    1
    49    16    11    1
    50    47    45    1
    51    30    24   ar
    52    18    19    1
    53    22    23    1
@<TRIPOS>MOLECULE
*****
 47 53 0 0 0
SMALL
GASTEIGER

@<TRIPOS>ATOM
      1 C          58.7783   86.7843    8.6136 C.3     1  UNL1        0.0312
      2 C          59.6191   87.9952    8.3365 C.2     1  UNL1        0.0136
      3 C          59.3973   88.7920    7.0851 C.2     1  UNL1        0.0107
      4 C          60.2380   90.0028    6.8080 C.2     1  UNL1        0.0509
      5 C          61.3007   90.4170    7.7823 C.2     1  UNL1        0.0613
      6 C          61.5225   89.6203    9.0337 C.2     1  UNL1        0.2246
      7 N          62.4876   89.7845   10.1702 N.2     1  UNL1       -0.0378
      8 C          62.2432   88.6750   11.1497 C.2     1  UNL1        0.3605
      9 N          61.1271   87.8252   10.6186 N.2     1  UNL1       -0.0547
     10 C          60.6817   88.4094    9.3108 C.3     1  UNL1        0.2976
     11 C          62.9848   88.4542   12.4347 C.3     1  UNL1        0.2246
     12 C          63.4990   89.6274   13.2151 C.2     1  UNL1        0.0436
     13 C          64.2406   89.4065   14.5002 C.2     1  UNL1        0.0288
     14 C          64.4679   88.0123   15.0048 C.2     1  UNL1        0.0896
     15 N          63.9537   86.8391   14.2244 N.am    1  UNL1       -0.1770
     16 C          63.2122   87.0600   12.9394 C.2     1  UNL1        0.2627
     17 O          62.6979   85.8868   12.1590 O.2     1  UNL1       -0.2719
     18 N          63.2717   91.0216   12.7106 N.pl3   1  UNL1       -0.3329
     19 H          62.4987   91.5408   13.0301 H       1  UNL1        0.1466
     20 C          64.2222   91.6247   11.7192 C.3     1  UNL1        0.1211
     21 C          65.3487   92.4943   12.1935 C.3     1  UNL1        0.1522
     22 O          65.5971   92.6647   13.6629 O.3     1  UNL1       -0.3783
     23 H          64.9451   92.1492   14.1630 H       1  UNL1        0.2109
     24 C          66.2266   93.1934   11.1983 C.ar    1  UNL1        0.0067
     25 C          67.2289   92.4111   10.4024 C.ar    1  UNL1       -0.0018
     26 C          68.1069   93.1102    9.4073 C.ar    1  UNL1        0.0006
     27 C          67.9826   94.5917    9.2080 C.ar    1  UNL1        0.0114
     28 C          66.9804   95.3740   10.0038 C.ar    1  UNL1        0.0574
     29 CL         66.8562   96.8555    9.8045 Cl      1  UNL1       -0.0823
     30 C          66.1024   94.6749   10.9990 C.ar    1  UNL1        0.0095
     31 N          60.0162   90.7996    5.5565 N.pl3   1  UNL1       -0.3073
     32 C          58.6291   91.2220    5.1724 C.3     1  UNL1        0.0922
     33 C          58.4072   92.0188    3.9210 C.3     1  UNL1        0.0374
     34 C          59.5725   92.3930    3.0537 C.3     1  UNL1        0.0610
     35 C          60.9595   91.9705    3.4379 C.3     1  UNL1        0.0374
     36 C          61.1814   91.1738    4.6893 C.3     1  UNL1        0.0922
     37 N          59.3507   93.1897    1.8023 N.3     1  UNL1       -0.2710
     38 C          58.3691   92.7124    0.7734 C.3     1  UNL1        0.0939
     39 C          58.1473   93.5090   -0.4780 C.3     1  UNL1        0.1107
     40 N          58.9071   94.7830   -0.7006 N.am    1  UNL1       -0.2767
     41 C          58.6854   95.5797   -1.9520 C.2     1  UNL1        0.2252
     42 O          59.4452   96.8537   -2.1746 O.2     1  UNL1       -0.2749
     43 C          59.8888   95.2603    0.3283 C.3     1  UNL1        0.1107
     44 C          60.1106   94.4637    1.5797 C.3     1  UNL1        0.0939
     45 C          57.7037   95.1024   -2.9809 C.3     1  UNL1        0.0767
     46 C          57.3750   94.7666   -4.4053 C.3     1  UNL1        0.0096
     47 C          56.3322   94.6114   -3.3384 C.3     1  UNL1        0.0096
@<TRIPOS>BOND
     1     1     2    1
     2     2     3    2
     3     3     4    1
     4     4    31    1
     5    31    32    1
     6    32    33    1
     7    33    34    1
     8    34    37    1
     9    37    38    1
    10    38    39    1
    11    39    40    1
    12    40    41   am
    13    41    42    2
    14    41    45    1
    15    45    46    1
    16    46    47    1
    17    40    43    1
    18    43    44    1
    19    34    35    1
    20    35    36    1
    21     4     5    2
    22     5     6    1
    23     6     7    2
    24     7     8    1
    25     8    11    1
    26    11    12    1
    27    12    18    1
    28    18    20    1
    29    20    21    1
    30    21    22    1
    31    21    24    1
    32    24    25   ar
    33    25    26   ar
    34    26    27   ar
    35    27    28   ar
    36    28    29    1
    37    28    30   ar
    38    12    13    2
    39    13    14    1
    40    14    15    2
    41    15    16    1
    42    16    17    2
    43     8     9    2
    44     9    10    1
    45    10     2    1
    46    36    31    1
    47    10     6    1
    48    44    37    1
    49    16    11    1
    50    47    45    1
    51    30    24   ar
    52    18    19    1
    53    22    23    1
@<TRIPOS>MOLECULE
*****
 47 53 0 0 0
SMALL
GASTEIGER

@<TRIPOS>ATOM
      1 C          58.7363   86.8118    8.5528 C.3     1  UNL1        0.0312
      2 C          59.5780   88.0206    8.2693 C.2     1  UNL1        0.0136
      3 C          59.3505   88.8163    7.0183 C.2     1  UNL1        0.0107
      4 C          60.1922   90.0249    6.7347 C.2     1  UNL1        0.0509
      5 C          61.2616   90.4381    7.7022 C.2     1  UNL1        0.0613
      6 C          61.4891   89.6424    8.9532 C.2     1  UNL1        0.2246
      7 N          62.4613   89.8058   10.0838 N.2     1  UNL1       -0.0378
      8 C          62.2204   88.6980   11.0660 C.2     1  UNL1        0.3605
      9 N          61.0993   87.8500   10.5426 N.2     1  UNL1       -0.0547
     10 C          60.6473   88.4336    9.2368 C.3     1  UNL1        0.2976
     11 C          62.9691   88.4771   12.3469 C.3     1  UNL1        0.2246
     12 C          63.5190   89.6483   13.1058 C.2     1  UNL1        0.0436
     13 C          64.2677   89.4272   14.3867 C.2     1  UNL1        0.0288
     14 C          64.4665   88.0351   14.9087 C.2     1  UNL1        0.0896
     15 N          63.9166   86.8640   14.1498 N.am    1  UNL1       -0.1770
     16 C          63.1679   87.0850   12.8689 C.2     1  UNL1        0.2627
     17 O          62.6180   85.9138   12.1100 O.2     1  UNL1       -0.2719
     18 N          63.3202   91.0404   12.5839 N.pl3   1  UNL1       -0.3329
     19 H          62.6705   91.6402   13.0167 H       1  UNL1        0.1466
     20 C          64.1114   91.5187   11.4027 C.3     1  UNL1        0.1211
     21 C          65.1418   92.5948   11.5763 C.3     1  UNL1        0.1522
     22 O          65.0572   93.8525   10.7631 O.3     1  UNL1       -0.3783
     23 H          64.2837   93.8086   10.1794 H       1  UNL1        0.2109
     24 C          66.2569   92.4133   12.5630 C.ar    1  UNL1        0.0067
     25 C          67.6014   91.9394   12.0965 C.ar    1  UNL1       -0.0018
     26 C          68.7165   91.7579   13.0832 C.ar    1  UNL1        0.0006
     27 C          68.4871   92.0503   14.5365 C.ar    1  UNL1        0.0114
     28 C          67.1426   92.5243   15.0029 C.ar    1  UNL1        0.0574
     29 CL         66.9132   92.8167   16.4561 Cl      1  UNL1       -0.0823
     30 C          66.0275   92.7058   14.0162 C.ar    1  UNL1        0.0095
     31 N          59.9647   90.8207    5.4836 N.pl3   1  UNL1       -0.3073
     32 C          61.1283   91.2124    4.6219 C.3     1  UNL1        0.0922
     33 C          60.9008   92.0081    3.3709 C.3     1  UNL1        0.0374
     34 C          59.5097   92.4121    2.9816 C.3     1  UNL1        0.0610
     35 C          58.3461   92.0203    3.8433 C.3     1  UNL1        0.0374
     36 C          58.5736   91.2246    5.0943 C.3     1  UNL1        0.0922
     37 N          59.2821   93.2078    1.7306 N.3     1  UNL1       -0.2710
     38 C          58.2774   92.7428    0.7183 C.3     1  UNL1        0.0939
     39 C          58.0498   93.5384   -0.5327 C.3     1  UNL1        0.1107
     40 N          58.8267   94.7991   -0.7716 N.am    1  UNL1       -0.2767
     41 C          58.5991   95.5948   -2.0226 C.2     1  UNL1        0.2252
     42 O          59.3761   96.8554   -2.2615 O.2     1  UNL1       -0.2749
     43 C          59.8314   95.2640    0.2407 C.3     1  UNL1        0.1107
     44 C          60.0590   94.4684    1.4917 C.3     1  UNL1        0.0939
     45 C          57.5945   95.1297   -3.0347 C.3     1  UNL1        0.0767
     46 C          56.2026   94.6856   -3.3742 C.3     1  UNL1        0.0096
     47 C          57.2463   94.7684   -4.4483 C.3     1  UNL1        0.0096
@<TRIPOS>BOND
     1     1     2    1
     2     2     3    2
     3     3     4    1
     4     4    31    1
     5    31    32    1
     6    32    33    1
     7    33    34    1
     8    34    37    1
     9    37    38    1
    10    38    39    1
    11    39    40    1
    12    40    41   am
    13    41    42    2
    14    41    45    1
    15    45    46    1
    16    46    47    1
    17    40    43    1
    18    43    44    1
    19    34    35    1
    20    35    36    1
    21     4     5    2
    22     5     6    1
    23     6     7    2
    24     7     8    1
    25     8    11    1
    26    11    12    1
    27    12    18    1
    28    18    20    1
    29    20    21    1
    30    21    22    1
    31    21    24    1
    32    24    25   ar
    33    25    26   ar
    34    26    27   ar
    35    27    28   ar
    36    28    29    1
    37    28    30   ar
    38    12    13    2
    39    13    14    1
    40    14    15    2
    41    15    16    1
    42    16    17    2
    43     8     9    2
    44     9    10    1
    45    10     2    1
    46    36    31    1
    47    10     6    1
    48    44    37    1
    49    16    11    1
    50    47    45    1
    51    30    24   ar
    52    18    19    1
    53    22    23    1
@<TRIPOS>MOLECULE
*****
 47 53 0 0 0
SMALL
GASTEIGER

@<TRIPOS>ATOM
      1 C          59.0817   86.8521    8.7546 C.3     1  UNL1        0.0312
      2 C          59.8408   88.1133    8.4662 C.2     1  UNL1        0.0136
      3 C          59.5873   88.8670    7.1943 C.2     1  UNL1        0.0107
      4 C          60.3463   90.1281    6.9058 C.2     1  UNL1        0.0509
      5 C          61.3589   90.6357    7.8893 C.2     1  UNL1        0.0613
      6 C          61.6124   89.8820    9.1612 C.2     1  UNL1        0.2246
      7 N          62.5421   90.1366   10.3104 N.2     1  UNL1       -0.0378
      8 C          62.3576   89.0328   11.3092 C.2     1  UNL1        0.3605
      9 N          61.3139   88.0959   10.7772 N.2     1  UNL1       -0.0547
     10 C          60.8533   88.6208    9.4496 C.3     1  UNL1        0.2976
     11 C          63.0885   88.8906   12.6113 C.3     1  UNL1        0.2246
     12 C          63.4349   87.5273   13.1320 C.2     1  UNL1        0.0436
     13 C          64.1658   87.3852   14.4342 C.2     1  UNL1        0.0288
     14 C          64.5504   88.6065   15.2156 C.2     1  UNL1        0.0896
     15 N          64.2040   89.9699   14.6949 N.am    1  UNL1       -0.1770
     16 C          63.4731   90.1119   13.3927 C.2     1  UNL1        0.2627
     17 O          63.1267   91.4753   12.8720 O.2     1  UNL1       -0.2719
     18 N          63.0504   86.3059   12.3507 N.pl3   1  UNL1       -0.3329
     19 H          62.4574   86.3881   11.5691 H       1  UNL1        0.1466
     20 C          63.5692   84.9594   12.7602 C.3     1  UNL1        0.1211
     21 C          62.7088   84.0405   13.5758 C.3     1  UNL1        0.1522
     22 O          61.9603   84.5705   14.7628 O.3     1  UNL1       -0.3783
     23 H          62.1413   85.5183   14.8622 H       1  UNL1        0.2109
     24 C          62.5969   82.5915   13.2045 C.ar    1  UNL1        0.0067
     25 C          62.1733   81.5844   14.2322 C.ar    1  UNL1       -0.0018
     26 C          62.0614   80.1354   13.8609 C.ar    1  UNL1        0.0006
     27 C          62.3731   79.6935   12.4617 C.ar    1  UNL1        0.0114
     28 C          62.7967   80.7006   11.4340 C.ar    1  UNL1        0.0574
     29 CL         63.1084   80.2587   10.0349 Cl      1  UNL1       -0.0823
     30 C          62.9086   82.1496   11.8054 C.ar    1  UNL1        0.0095
     31 N          60.0929   90.8818    5.6339 N.pl3   1  UNL1       -0.3073
     32 C          58.6991   91.3091    5.2803 C.3     1  UNL1        0.0922
     33 C          58.4457   92.0628    4.0084 C.3     1  UNL1        0.0374
     34 C          59.5859   92.3892    3.0901 C.3     1  UNL1        0.0610
     35 C          60.9796   91.9619    3.4437 C.3     1  UNL1        0.0374
     36 C          61.2331   91.2082    4.7156 C.3     1  UNL1        0.0922
     37 N          59.3325   93.1428    1.8182 N.3     1  UNL1       -0.2710
     38 C          58.5275   92.5125    0.7206 C.3     1  UNL1        0.0939
     39 C          58.2740   93.2661   -0.5513 C.3     1  UNL1        0.1107
     40 N          58.8256   94.6501   -0.7257 N.am    1  UNL1       -0.2767
     41 C          58.5723   95.4037   -1.9976 C.2     1  UNL1        0.2252
     42 O          59.1239   96.7877   -2.1720 O.2     1  UNL1       -0.2749
     43 C          59.6307   95.2803    0.3719 C.3     1  UNL1        0.1107
     44 C          59.8841   94.5268    1.6438 C.3     1  UNL1        0.0939
     45 C          57.7672   94.7734   -3.0952 C.3     1  UNL1        0.0767
     46 C          56.4655   94.6112   -3.8226 C.3     1  UNL1        0.0096
     47 C          57.6745   93.8438   -4.2687 C.3     1  UNL1        0.0096
@<TRIPOS>BOND
     1     1     2    1
     2     2     3    2
     3     3     4    1
     4     4    31    1
     5    31    32    1
     6    32    33    1
     7    33    34    1
     8    34    37    1
     9    37    38    1
    10    38    39    1
    11    39    40    1
    12    40    41   am
    13    41    42    2
    14    41    45    1
    15    45    46    1
    16    46    47    1
    17    40    43    1
    18    43    44    1
    19    34    35    1
    20    35    36    1
    21     4     5    2
    22     5     6    1
    23     6     7    2
    24     7     8    1
    25     8    11    1
    26    11    12    1
    27    12    18    1
    28    18    20    1
    29    20    21    1
    30    21    22    1
    31    21    24    1
    32    24    25   ar
    33    25    26   ar
    34    26    27   ar
    35    27    28   ar
    36    28    29    1
    37    28    30   ar
    38    12    13    2
    39    13    14    1
    40    14    15    2
    41    15    16    1
    42    16    17    2
    43     8     9    2
    44     9    10    1
    45    10     2    1
    46    36    31    1
    47    10     6    1
    48    44    37    1
    49    16    11    1
    50    47    45    1
    51    30    24   ar
    52    18    19    1
    53    22    23    1
@<TRIPOS>MOLECULE
*****
 47 53 0 0 0
SMALL
GASTEIGER

@<TRIPOS>ATOM
      1 C          56.2956   91.6221    4.8379 C.3     1  UNL1        0.0312
      2 C          57.7604   91.3298    4.9757 C.2     1  UNL1        0.0136
      3 C          58.2336   90.3303    5.9891 C.2     1  UNL1        0.0107
      4 C          59.6983   90.0380    6.1270 C.2     1  UNL1        0.0509
      5 C          60.6900   90.7453    5.2514 C.2     1  UNL1        0.0613
      6 C          60.2167   91.7448    4.2380 C.2     1  UNL1        0.2246
      7 N          60.9540   92.5916    3.2434 N.2     1  UNL1       -0.0378
      8 C          59.9448   93.4073    2.4908 C.2     1  UNL1        0.3605
      9 N          58.5839   93.0645    3.0203 N.2     1  UNL1       -0.0547
     10 C          58.7519   92.0371    4.1001 C.3     1  UNL1        0.2976
     11 C          60.2441   94.3927    1.4002 C.3     1  UNL1        0.2246
     12 C          60.5895   93.9063    0.0240 C.2     1  UNL1        0.0436
     13 C          60.8887   94.8918   -1.0666 C.2     1  UNL1        0.0288
     14 C          60.8425   96.3636   -0.7810 C.2     1  UNL1        0.0896
     15 N          60.4971   96.8500    0.5953 N.am    1  UNL1       -0.1770
     16 C          60.1979   95.8645    1.6858 C.2     1  UNL1        0.2627
     17 O          59.8524   96.3509    3.0621 O.2     1  UNL1       -0.2719
     18 N          60.6358   92.4345   -0.2618 N.pl3   1  UNL1       -0.3329
     19 H          61.4583   91.9240   -0.0829 H       1  UNL1        0.1466
     20 C          59.4288   91.7405   -0.8200 C.3     1  UNL1        0.1211
     21 C          58.1298   92.4799   -0.9457 C.3     1  UNL1        0.1522
     22 O          57.0825   92.3426    0.1194 O.3     1  UNL1       -0.3783
     23 H          57.4027   91.7442    0.8124 H       1  UNL1        0.2109
     24 C          57.8780   93.3566   -2.1366 C.ar    1  UNL1        0.0067
     25 C          56.8827   94.4752   -2.0474 C.ar    1  UNL1       -0.0018
     26 C          56.6310   95.3519   -3.2382 C.ar    1  UNL1        0.0006
     27 C          57.3745   95.1099   -4.5183 C.ar    1  UNL1        0.0114
     28 C          58.3698   93.9913   -4.6074 C.ar    1  UNL1        0.0574
     29 CL         59.1133   93.7493   -5.8875 Cl      1  UNL1       -0.0823
     30 C          58.6216   93.1146   -3.4166 C.ar    1  UNL1        0.0095
     31 N          60.1716   89.0385    7.1404 N.pl3   1  UNL1       -0.3073
     32 C          60.5907   89.4960    8.5061 C.3     1  UNL1        0.0922
     33 C          61.0640   88.4965    9.5195 C.3     1  UNL1        0.0374
     34 C          61.1181   87.0395    9.1673 C.3     1  UNL1        0.0610
     35 C          60.6990   86.5819    7.8016 C.3     1  UNL1        0.0374
     36 C          60.2257   87.5814    6.7882 C.3     1  UNL1        0.0922
     37 N          61.5913   86.0399   10.1806 N.3     1  UNL1       -0.2710
     38 C          61.7491   86.4447   11.6164 C.3     1  UNL1        0.0939
     39 C          62.2223   85.4452   12.6298 C.3     1  UNL1        0.1107
     40 N          62.5378   84.0409   12.2075 N.am    1  UNL1       -0.2767
     41 C          63.0110   83.0413   13.2209 C.2     1  UNL1        0.2252
     42 O          63.3264   81.6370   12.7986 O.2     1  UNL1       -0.2749
     43 C          62.3800   83.6361   10.7718 C.3     1  UNL1        0.1107
     44 C          61.9067   84.6356    9.7583 C.3     1  UNL1        0.0939
     45 C          63.1688   83.4462   14.6566 C.3     1  UNL1        0.0767
     46 C          64.0374   83.6370   15.8645 C.3     1  UNL1        0.0096
     47 C          62.5736   83.9565   15.9353 C.3     1  UNL1        0.0096
@<TRIPOS>BOND
     1     1     2    1
     2     2     3    2
     3     3     4    1
     4     4    31    1
     5    31    32    1
     6    32    33    1
     7    33    34    1
     8    34    37    1
     9    37    38    1
    10    38    39    1
    11    39    40    1
    12    40    41   am
    13    41    42    2
    14    41    45    1
    15    45    46    1
    16    46    47    1
    17    40    43    1
    18    43    44    1
    19    34    35    1
    20    35    36    1
    21     4     5    2
    22     5     6    1
    23     6     7    2
    24     7     8    1
    25     8    11    1
    26    11    12    1
    27    12    18    1
    28    18    20    1
    29    20    21    1
    30    21    22    1
    31    21    24    1
    32    24    25   ar
    33    25    26   ar
    34    26    27   ar
    35    27    28   ar
    36    28    29    1
    37    28    30   ar
    38    12    13    2
    39    13    14    1
    40    14    15    2
    41    15    16    1
    42    16    17    2
    43     8     9    2
    44     9    10    1
    45    10     2    1
    46    36    31    1
    47    10     6    1
    48    44    37    1
    49    16    11    1
    50    47    45    1
    51    30    24   ar
    52    18    19    1
    53    22    23    1
