@<TRIPOS>MOLECULE
*****
 25 27 0 0 0
SMALL
GASTEIGER

@<TRIPOS>ATOM
      1 C          63.9764   87.6175   14.2072 C.2     1  UNL1        0.2252
      2 O          63.3962   87.5729   12.8247 O.2     1  UNL1       -0.2750
      3 N          63.9761   88.9033   14.9797 N.am    1  UNL1       -0.3003
      4 H          64.3569   88.9326   15.8871 H       1  UNL1        0.1497
      5 C          64.5571   86.3762   14.8173 C.3     1  UNL1        0.1154
      6 C          63.5154   85.9865   16.4884 C.3     1  UNL1        0.0335
      7 C          63.6589   85.2366   15.1973 C.3     1  UNL1        0.1377
      8 C          63.9901   84.7249   13.8268 C.3     1  UNL1        0.0613
      9 C          63.2666   83.4257   13.6296 C.3     1  UNL1        0.1290
     10 C          62.4861   82.1459   13.5775 C.3     1  UNL1        0.0305
     11 C          62.5328   81.2885   12.3476 C.3     1  UNL1        0.0025
     12 C          63.3600   81.7110   11.1698 C.3     1  UNL1        0.0002
     13 C          64.1405   82.9908   11.2219 C.3     1  UNL1        0.0025
     14 C          64.0938   83.8482   12.4518 C.3     1  UNL1        0.0305
     15 O          62.4882   83.1345   14.8783 O.3     1  UNL1       -0.2256
     16 O          62.7306   84.2537   15.8473 O.3     1  UNL1       -0.2251
     17 C          63.3955   90.1446   14.3696 C.3     1  UNL1        0.1186
     18 C          64.1886   90.9290   13.3668 C.ar    1  UNL1        0.0250
     19 C          63.6808   91.0829   11.9637 C.ar    1  UNL1        0.0001
     20 C          64.4739   91.8673   10.9609 C.ar    1  UNL1        0.0066
     21 C          65.7748   92.4977   11.3611 C.ar    1  UNL1        0.0368
     22 BR         66.5679   93.2822   10.3582 Br      1  UNL1       -0.0489
     23 C          66.2826   92.3438   12.7640 C.ar    1  UNL1        0.0361
     24 C          65.4895   91.5594   13.7670 C.ar    1  UNL1        0.1382
     25 F          65.9973   91.4055   15.1699 F       1  UNL1       -0.2044
@<TRIPOS>BOND
     1     6     7    1
     2     7     5    1
     3     5     1    1
     4     1     2    2
     5     1     3   am
     6     3    17    1
     7    17    18    1
     8    18    19   ar
     9    19    20   ar
    10    20    21   ar
    11    21    22    1
    12    21    23   ar
    13    23    24   ar
    14    24    25    1
    15     7     8    1
    16     8     9    1
    17     9    10    1
    18    10    11    1
    19    11    12    1
    20    12    13    1
    21    13    14    1
    22     9    15    1
    23    15    16    1
    24    16     7    1
    25    24    18   ar
    26    14     9    1
    27     3     4    1
@<TRIPOS>MOLECULE
*****
 25 27 0 0 0
SMALL
GASTEIGER

@<TRIPOS>ATOM
      1 C          64.2323   87.5188   14.2998 C.2     1  UNL1        0.2252
      2 O          64.5922   88.8852   14.8030 O.2     1  UNL1       -0.2750
      3 N          63.4733   87.3686   13.0147 N.am    1  UNL1       -0.3003
      4 H          63.2370   86.4717   12.6845 H       1  UNL1        0.1497
      5 C          64.6313   86.3025   15.0818 C.3     1  UNL1        0.1154
      6 C          63.4199   86.0267   16.6585 C.3     1  UNL1        0.0335
      7 C          63.6147   85.2446   15.3935 C.3     1  UNL1        0.1377
      8 C          64.0220   84.6836   14.0634 C.3     1  UNL1        0.0613
      9 C          63.2163   83.4423   13.8174 C.3     1  UNL1        0.1290
     10 C          62.3430   82.2275   13.7107 C.3     1  UNL1        0.0305
     11 C          62.4277   81.3470   12.4993 C.3     1  UNL1        0.0025
     12 C          63.3858   81.6814   11.3946 C.3     1  UNL1        0.0002
     13 C          64.2591   82.8962   11.5013 C.3     1  UNL1        0.0025
     14 C          64.1744   83.7767   12.7127 C.3     1  UNL1        0.0305
     15 O          62.3111   83.2363   14.9956 O.3     1  UNL1       -0.2256
     16 O          62.5573   84.3501   15.9697 O.3     1  UNL1       -0.2251
     17 C          63.0743   88.5849   12.2328 C.3     1  UNL1        0.1186
     18 C          62.1323   88.4551   11.0727 C.ar    1  UNL1        0.0250
     19 C          61.9776   87.1356   10.3763 C.ar    1  UNL1        0.0001
     20 C          61.0356   87.0058    9.2162 C.ar    1  UNL1        0.0066
     21 C          60.2484   88.1954    8.7526 C.ar    1  UNL1        0.0368
     22 BR         59.3064   88.0655    7.5924 Br      1  UNL1       -0.0489
     23 C          60.4030   89.5148    9.4490 C.ar    1  UNL1        0.0361
     24 C          61.3450   89.6447   10.6091 C.ar    1  UNL1        0.1382
     25 F          61.4997   90.9641   11.3055 F       1  UNL1       -0.2044
@<TRIPOS>BOND
     1     6     7    1
     2     7     5    1
     3     5     1    1
     4     1     2    2
     5     1     3   am
     6     3    17    1
     7    17    18    1
     8    18    19   ar
     9    19    20   ar
    10    20    21   ar
    11    21    22    1
    12    21    23   ar
    13    23    24   ar
    14    24    25    1
    15     7     8    1
    16     8     9    1
    17     9    10    1
    18    10    11    1
    19    11    12    1
    20    12    13    1
    21    13    14    1
    22     9    15    1
    23    15    16    1
    24    16     7    1
    25    24    18   ar
    26    14     9    1
    27     3     4    1
@<TRIPOS>MOLECULE
*****
 25 27 0 0 0
SMALL
GASTEIGER

@<TRIPOS>ATOM
      1 C          60.8828   89.0608   11.1919 C.2     1  UNL1        0.2252
      2 O          59.8440   90.0894   11.5272 O.2     1  UNL1       -0.2750
      3 N          62.3330   89.4428   11.1575 N.am    1  UNL1       -0.3003
      4 H          63.0148   88.7676   10.9375 H       1  UNL1        0.1497
      5 C          60.4716   87.6499   10.8910 C.3     1  UNL1        0.1154
      6 C          60.4238   87.8182    8.8912 C.3     1  UNL1        0.0335
      7 C          61.1625   86.8834    9.8025 C.3     1  UNL1        0.1377
      8 C          61.7567   86.1088   10.9413 C.3     1  UNL1        0.0613
      9 C          62.6606   85.0588   10.3661 C.3     1  UNL1        0.1290
     10 C          63.5248   84.0642    9.6493 C.3     1  UNL1        0.0305
     11 C          64.3240   83.0642   10.4312 C.3     1  UNL1        0.0025
     12 C          64.2589   83.0588   11.9297 C.3     1  UNL1        0.0002
     13 C          63.3947   84.0535   12.6465 C.3     1  UNL1        0.0025
     14 C          62.5955   85.0535   11.8646 C.3     1  UNL1        0.0305
     15 O          62.6250   85.1846    8.8718 O.3     1  UNL1       -0.2256
     16 O          61.6990   86.3122    8.5234 O.3     1  UNL1       -0.2251
     17 C          62.7442   90.8536   11.4585 C.3     1  UNL1        0.1186
     18 C          63.9429   91.1177   12.3207 C.ar    1  UNL1        0.0250
     19 C          64.1121   90.3805   13.6160 C.ar    1  UNL1        0.0001
     20 C          65.3108   90.6446   14.4782 C.ar    1  UNL1        0.0066
     21 C          66.3403   91.6459   14.0450 C.ar    1  UNL1        0.0368
     22 BR         67.5390   91.9099   14.9073 Br      1  UNL1       -0.0489
     23 C          66.1711   92.3830   12.7497 C.ar    1  UNL1        0.0361
     24 C          64.9723   92.1190   11.8875 C.ar    1  UNL1        0.1382
     25 F          64.8031   92.8561   10.5922 F       1  UNL1       -0.2044
@<TRIPOS>BOND
     1     6     7    1
     2     7     5    1
     3     5     1    1
     4     1     2    2
     5     1     3   am
     6     3    17    1
     7    17    18    1
     8    18    19   ar
     9    19    20   ar
    10    20    21   ar
    11    21    22    1
    12    21    23   ar
    13    23    24   ar
    14    24    25    1
    15     7     8    1
    16     8     9    1
    17     9    10    1
    18    10    11    1
    19    11    12    1
    20    12    13    1
    21    13    14    1
    22     9    15    1
    23    15    16    1
    24    16     7    1
    25    24    18   ar
    26    14     9    1
    27     3     4    1
@<TRIPOS>MOLECULE
*****
 25 27 0 0 0
SMALL
GASTEIGER

@<TRIPOS>ATOM
      1 C          62.4761   89.0092   11.9405 C.2     1  UNL1        0.2252
      2 O          63.5072   88.1351   12.5906 O.2     1  UNL1       -0.2750
      3 N          61.3573   88.3921   11.1546 N.am    1  UNL1       -0.3003
      4 H          60.6805   88.9658   10.7279 H       1  UNL1        0.1497
      5 C          62.5637   90.5005   12.0763 C.3     1  UNL1        0.1154
      6 C          63.1770   90.9970   10.2305 C.3     1  UNL1        0.0335
      7 C          63.7796   91.2282   11.5845 C.3     1  UNL1        0.1377
      8 C          64.1281   91.3073   13.0413 C.3     1  UNL1        0.0613
      9 C          65.4335   92.0355   13.1669 C.3     1  UNL1        0.1290
     10 C          66.7377   92.7758   13.1358 C.3     1  UNL1        0.0305
     11 C          67.4582   93.0796   14.4159 C.3     1  UNL1        0.0025
     12 C          66.8745   92.6433   15.7269 C.3     1  UNL1        0.0002
     13 C          65.5703   91.9030   15.7579 C.3     1  UNL1        0.0025
     14 C          64.8498   91.5991   14.4779 C.3     1  UNL1        0.0305
     15 O          65.8918   92.4065   11.7876 O.3     1  UNL1       -0.2256
     16 O          64.8696   91.9075   10.8096 O.3     1  UNL1       -0.2251
     17 C          61.2697   86.9008   11.0189 C.3     1  UNL1        0.1186
     18 C          61.4350   86.2592    9.6731 C.ar    1  UNL1        0.0250
     19 C          62.7120   85.5501    9.3320 C.ar    1  UNL1        0.0001
     20 C          62.8773   84.9085    7.9863 C.ar    1  UNL1        0.0066
     21 C          61.7655   84.9761    6.9816 C.ar    1  UNL1        0.0368
     22 BR         61.9309   84.3345    5.6358 Br      1  UNL1       -0.0489
     23 C          60.4886   85.6852    7.3226 C.ar    1  UNL1        0.0361
     24 C          60.3232   86.3268    8.6684 C.ar    1  UNL1        0.1382
     25 F          59.0463   87.0359    9.0094 F       1  UNL1       -0.2044
@<TRIPOS>BOND
     1     6     7    1
     2     7     5    1
     3     5     1    1
     4     1     2    2
     5     1     3   am
     6     3    17    1
     7    17    18    1
     8    18    19   ar
     9    19    20   ar
    10    20    21   ar
    11    21    22    1
    12    21    23   ar
    13    23    24   ar
    14    24    25    1
    15     7     8    1
    16     8     9    1
    17     9    10    1
    18    10    11    1
    19    11    12    1
    20    12    13    1
    21    13    14    1
    22     9    15    1
    23    15    16    1
    24    16     7    1
    25    24    18   ar
    26    14     9    1
    27     3     4    1
@<TRIPOS>MOLECULE
*****
 25 27 0 0 0
SMALL
GASTEIGER

@<TRIPOS>ATOM
      1 C          63.1927   88.2015   12.4835 C.2     1  UNL1        0.2252
      2 O          63.8639   88.7918   13.6880 O.2     1  UNL1       -0.2750
      3 N          63.0129   86.7160   12.3776 N.am    1  UNL1       -0.3003
      4 H          62.5723   86.3286   11.5870 H       1  UNL1        0.1497
      5 C          62.7013   89.0966   11.3846 C.3     1  UNL1        0.1154
      6 C          60.8948   89.9345   11.6383 C.3     1  UNL1        0.0335
      7 C          61.3730   88.8326   10.7399 C.3     1  UNL1        0.1377
      8 C          62.1288   87.7859    9.9763 C.3     1  UNL1        0.0613
      9 C          61.1677   87.1053    9.0472 C.3     1  UNL1        0.1290
     10 C          60.0961   86.5203    8.1758 C.3     1  UNL1        0.0305
     11 C          60.4267   85.4089    7.2244 C.3     1  UNL1        0.0025
     12 C          61.8290   84.8823    7.1445 C.3     1  UNL1        0.0002
     13 C          62.9006   85.4672    8.0159 C.3     1  UNL1        0.0025
     14 C          62.5699   86.5787    8.9673 C.3     1  UNL1        0.0305
     15 O          59.8178   87.7313    9.2368 O.3     1  UNL1       -0.2256
     16 O          59.9447   88.7989   10.2829 O.3     1  UNL1       -0.2251
     17 C          63.5043   85.8209   13.4764 C.3     1  UNL1        0.1186
     18 C          63.2206   84.3488   13.4279 C.ar    1  UNL1        0.0250
     19 C          63.6931   83.5320   12.2619 C.ar    1  UNL1        0.0001
     20 C          63.4095   82.0599   12.2133 C.ar    1  UNL1        0.0066
     21 C          62.6533   81.4046   13.3308 C.ar    1  UNL1        0.0368
     22 BR         62.3697   79.9324   13.2822 Br      1  UNL1       -0.0489
     23 C          62.1808   82.2213   14.4968 C.ar    1  UNL1        0.0361
     24 C          62.4645   83.6935   14.5453 C.ar    1  UNL1        0.1382
     25 F          61.9920   84.5102   15.7113 F       1  UNL1       -0.2044
@<TRIPOS>BOND
     1     6     7    1
     2     7     5    1
     3     5     1    1
     4     1     2    2
     5     1     3   am
     6     3    17    1
     7    17    18    1
     8    18    19   ar
     9    19    20   ar
    10    20    21   ar
    11    21    22    1
    12    21    23   ar
    13    23    24   ar
    14    24    25    1
    15     7     8    1
    16     8     9    1
    17     9    10    1
    18    10    11    1
    19    11    12    1
    20    12    13    1
    21    13    14    1
    22     9    15    1
    23    15    16    1
    24    16     7    1
    25    24    18   ar
    26    14     9    1
    27     3     4    1
@<TRIPOS>MOLECULE
*****
 25 27 0 0 0
SMALL
GASTEIGER

@<TRIPOS>ATOM
      1 C          63.8593   89.6559   13.9058 C.2     1  UNL1        0.2252
      2 O          63.7575   91.1523   13.9007 O.2     1  UNL1       -0.2750
      3 N          63.4222   88.8702   12.7050 N.am    1  UNL1       -0.3003
      4 H          63.4890   87.8880   12.7084 H       1  UNL1        0.1497
      5 C          64.3983   88.9449   15.1117 C.3     1  UNL1        0.1154
      6 C          63.1581   89.2988   16.6500 C.3     1  UNL1        0.0335
      7 C          63.5066   88.0412   15.9103 C.3     1  UNL1        0.1377
      8 C          64.0414   86.9725   15.0037 C.3     1  UNL1        0.0613
      9 C          63.4073   85.6711   15.3967 C.3     1  UNL1        0.1290
     10 C          62.6964   84.4502   15.9005 C.3     1  UNL1        0.0305
     11 C          62.9453   83.1183   15.2570 C.3     1  UNL1        0.0025
     12 C          63.9052   83.0074   14.1096 C.3     1  UNL1        0.0002
     13 C          64.6161   84.2284   13.6059 C.3     1  UNL1        0.0025
     14 C          64.3672   85.5602   14.2494 C.3     1  UNL1        0.0305
     15 O          62.4806   85.9355   16.5462 O.3     1  UNL1       -0.2256
     16 O          62.5419   87.4003   16.8637 O.3     1  UNL1       -0.2251
     17 C          62.8832   89.5812   11.4992 C.3     1  UNL1        0.1186
     18 C          61.9402   88.8745   10.5712 C.ar    1  UNL1        0.0250
     19 C          61.0446   89.6669    9.6656 C.ar    1  UNL1        0.0001
     20 C          60.1016   88.9603    8.7375 C.ar    1  UNL1        0.0066
     21 C          60.0542   87.4612    8.7150 C.ar    1  UNL1        0.0368
     22 BR         59.1111   86.7546    7.7869 Br      1  UNL1       -0.0489
     23 C          60.9497   86.6688    9.6205 C.ar    1  UNL1        0.0361
     24 C          61.8927   87.3755   10.5486 C.ar    1  UNL1        0.1382
     25 F          62.7882   86.5831   11.4541 F       1  UNL1       -0.2044
@<TRIPOS>BOND
     1     6     7    1
     2     7     5    1
     3     5     1    1
     4     1     2    2
     5     1     3   am
     6     3    17    1
     7    17    18    1
     8    18    19   ar
     9    19    20   ar
    10    20    21   ar
    11    21    22    1
    12    21    23   ar
    13    23    24   ar
    14    24    25    1
    15     7     8    1
    16     8     9    1
    17     9    10    1
    18    10    11    1
    19    11    12    1
    20    12    13    1
    21    13    14    1
    22     9    15    1
    23    15    16    1
    24    16     7    1
    25    24    18   ar
    26    14     9    1
    27     3     4    1
@<TRIPOS>MOLECULE
*****
 25 27 0 0 0
SMALL
GASTEIGER

@<TRIPOS>ATOM
      1 C          61.4569   87.8950   10.3612 C.2     1  UNL1        0.2252
      2 O          60.9109   88.7896    9.2882 O.2     1  UNL1       -0.2750
      3 N          62.2572   88.4778   11.4883 N.am    1  UNL1       -0.3003
      4 H          62.6156   87.8906   12.1926 H       1  UNL1        0.1497
      5 C          61.2028   86.4176   10.3073 C.3     1  UNL1        0.1154
      6 C          62.1169   86.1833    8.5355 C.3     1  UNL1        0.0335
      7 C          62.2872   85.4863    9.8528 C.3     1  UNL1        0.1377
      8 C          62.2308   84.9839   11.2650 C.3     1  UNL1        0.0613
      9 C          63.2447   83.8877   11.4080 C.3     1  UNL1        0.1290
     10 C          64.2937   82.8156   11.3997 C.3     1  UNL1        0.0305
     11 C          64.5752   82.0322   12.6474 C.3     1  UNL1        0.0025
     12 C          63.8076   82.3208   13.9035 C.3     1  UNL1        0.0002
     13 C          62.7587   83.3929   13.9117 C.3     1  UNL1        0.0025
     14 C          62.4772   84.1764   12.6640 C.3     1  UNL1        0.0305
     15 O          63.9278   83.7126   10.0840 O.3     1  UNL1       -0.2256
     16 O          63.3360   84.7006    9.1228 O.3     1  UNL1       -0.2251
     17 C          62.5112   89.9551   11.5421 C.3     1  UNL1        0.1186
     18 C          63.6327   90.4931   12.3805 C.ar    1  UNL1        0.0250
     19 C          63.9475   89.8638   13.7052 C.ar    1  UNL1        0.0001
     20 C          65.0690   90.4019   14.5435 C.ar    1  UNL1        0.0066
     21 C          65.8757   91.5692   14.0571 C.ar    1  UNL1        0.0368
     22 BR         66.9972   92.1072   14.8955 Br      1  UNL1       -0.0489
     23 C          65.5609   92.1985   12.7325 C.ar    1  UNL1        0.0361
     24 C          64.4394   91.6605   11.8941 C.ar    1  UNL1        0.1382
     25 F          64.1246   92.2898   10.5694 F       1  UNL1       -0.2044
@<TRIPOS>BOND
     1     6     7    1
     2     7     5    1
     3     5     1    1
     4     1     2    2
     5     1     3   am
     6     3    17    1
     7    17    18    1
     8    18    19   ar
     9    19    20   ar
    10    20    21   ar
    11    21    22    1
    12    21    23   ar
    13    23    24   ar
    14    24    25    1
    15     7     8    1
    16     8     9    1
    17     9    10    1
    18    10    11    1
    19    11    12    1
    20    12    13    1
    21    13    14    1
    22     9    15    1
    23    15    16    1
    24    16     7    1
    25    24    18   ar
    26    14     9    1
    27     3     4    1
@<TRIPOS>MOLECULE
*****
 25 27 0 0 0
SMALL
GASTEIGER

@<TRIPOS>ATOM
      1 C          63.9772   83.1314   11.2734 C.2     1  UNL1        0.2252
      2 O          64.7706   82.9700   10.0107 O.2     1  UNL1       -0.2750
      3 N          62.8261   84.0922   11.3183 N.am    1  UNL1       -0.3003
      4 H          62.3054   84.1981   12.1471 H       1  UNL1        0.1497
      5 C          64.3350   82.3321   12.4913 C.3     1  UNL1        0.1154
      6 C          63.1101   80.9535   13.2843 C.3     1  UNL1        0.0335
      7 C          63.4401   82.3580   13.6948 C.3     1  UNL1        0.1377
      8 C          63.9572   83.7570   13.8536 C.3     1  UNL1        0.0613
      9 C          63.3129   84.3541   15.0696 C.3     1  UNL1        0.1290
     10 C          62.5934   84.8143   16.3027 C.3     1  UNL1        0.0305
     11 C          62.8239   86.1984   16.8328 C.3     1  UNL1        0.0025
     12 C          63.7739   87.1223   16.1299 C.3     1  UNL1        0.0002
     13 C          64.4933   86.6620   14.8969 C.3     1  UNL1        0.0025
     14 C          64.2628   85.2780   14.3667 C.3     1  UNL1        0.0305
     15 O          62.3976   83.3240   15.6622 O.3     1  UNL1       -0.2256
     16 O          62.4762   82.0903   14.8125 O.3     1  UNL1       -0.2251
     17 C          62.4684   84.8915   10.1005 C.3     1  UNL1        0.1186
     18 C          61.8818   86.2639   10.2498 C.ar    1  UNL1        0.0250
     19 C          62.4395   87.2109   11.2707 C.ar    1  UNL1        0.0001
     20 C          61.8530   88.5834   11.4201 C.ar    1  UNL1        0.0066
     21 C          60.7088   89.0088   10.5485 C.ar    1  UNL1        0.0368
     22 BR         60.1222   90.3814   10.6979 Br      1  UNL1       -0.0489
     23 C          60.1511   88.0619    9.5277 C.ar    1  UNL1        0.0361
     24 C          60.7376   86.6894    9.3783 C.ar    1  UNL1        0.1382
     25 F          60.1799   85.7425    8.3574 F       1  UNL1       -0.2044
@<TRIPOS>BOND
     1     6     7    1
     2     7     5    1
     3     5     1    1
     4     1     2    2
     5     1     3   am
     6     3    17    1
     7    17    18    1
     8    18    19   ar
     9    19    20   ar
    10    20    21   ar
    11    21    22    1
    12    21    23   ar
    13    23    24   ar
    14    24    25    1
    15     7     8    1
    16     8     9    1
    17     9    10    1
    18    10    11    1
    19    11    12    1
    20    12    13    1
    21    13    14    1
    22     9    15    1
    23    15    16    1
    24    16     7    1
    25    24    18   ar
    26    14     9    1
    27     3     4    1
@<TRIPOS>MOLECULE
*****
 25 27 0 0 0
SMALL
GASTEIGER

@<TRIPOS>ATOM
      1 C          64.2670   91.0726   12.9496 C.2     1  UNL1        0.2252
      2 O          64.9352   91.9118   11.9012 O.2     1  UNL1       -0.2750
      3 N          62.8981   90.5116   12.7012 N.am    1  UNL1       -0.3003
      4 H          62.4596   89.9608   13.3893 H       1  UNL1        0.1497
      5 C          64.9676   90.7943   14.2465 C.3     1  UNL1        0.1154
      6 C          64.1564   91.9427   15.6792 C.3     1  UNL1        0.0335
      7 C          64.1710   90.4572   15.4718 C.3     1  UNL1        0.1377
      8 C          64.3522   89.0422   15.0084 C.3     1  UNL1        0.0613
      9 C          63.6644   88.1409   15.9907 C.3     1  UNL1        0.1290
     10 C          62.9372   87.3697   17.0519 C.3     1  UNL1        0.0305
     11 C          62.8678   85.8732   16.9768 C.3     1  UNL1        0.0025
     12 C          63.5257   85.1480   15.8405 C.3     1  UNL1        0.0002
     13 C          64.2529   85.9192   14.7792 C.3     1  UNL1        0.0025
     14 C          64.3223   87.4157   14.8544 C.3     1  UNL1        0.0305
     15 O          63.0582   88.9990   17.0613 O.3     1  UNL1       -0.2256
     16 O          63.3713   90.4306   16.7407 O.3     1  UNL1       -0.2251
     17 C          62.1976   90.7899   11.4044 C.3     1  UNL1        0.1186
     18 C          61.6941   89.6533   10.5650 C.ar    1  UNL1        0.0250
     19 C          62.5856   88.4821   10.2758 C.ar    1  UNL1        0.0001
     20 C          62.0821   87.3455    9.4364 C.ar    1  UNL1        0.0066
     21 C          60.6871   87.3801    8.8861 C.ar    1  UNL1        0.0368
     22 BR         60.1836   86.2435    8.0467 Br      1  UNL1       -0.0489
     23 C          59.7957   88.5512    9.1752 C.ar    1  UNL1        0.0361
     24 C          60.2991   89.6879   10.0147 C.ar    1  UNL1        0.1382
     25 F          59.4077   90.8590   10.3038 F       1  UNL1       -0.2044
@<TRIPOS>BOND
     1     6     7    1
     2     7     5    1
     3     5     1    1
     4     1     2    2
     5     1     3   am
     6     3    17    1
     7    17    18    1
     8    18    19   ar
     9    19    20   ar
    10    20    21   ar
    11    21    22    1
    12    21    23   ar
    13    23    24   ar
    14    24    25    1
    15     7     8    1
    16     8     9    1
    17     9    10    1
    18    10    11    1
    19    11    12    1
    20    12    13    1
    21    13    14    1
    22     9    15    1
    23    15    16    1
    24    16     7    1
    25    24    18   ar
    26    14     9    1
    27     3     4    1
