@<TRIPOS>MOLECULE
*****
 29 32 0 0 0
SMALL
GASTEIGER

@<TRIPOS>ATOM
      1 C          63.2048   91.0860   10.4724 C.3     1  UNL1        0.0324
      2 C          63.8678   90.6826   11.7561 C.ar    1  UNL1       -0.0071
      3 C          63.5461   89.3582   12.3825 C.ar    1  UNL1        0.0115
      4 C          64.2091   88.9549   13.6661 C.ar    1  UNL1        0.0476
      5 C          65.1938   89.8759   14.3234 C.ar    1  UNL1        0.0158
      6 C          65.5155   91.2003   13.6969 C.ar    1  UNL1        0.0156
      7 C          64.8525   91.6037   12.4133 C.ar    1  UNL1        0.0466
      8 N          63.8874   87.6304   14.2925 N.pl3   1  UNL1       -0.3061
      9 C          63.8290   87.3416   15.7633 C.3     1  UNL1        0.0923
     10 C          63.4731   85.8949   15.9378 C.3     1  UNL1        0.0391
     11 C          63.3115   85.2896   14.5749 C.3     1  UNL1        0.0790
     12 C          63.5675   86.3622   13.5581 C.3     1  UNL1        0.1067
     13 N          62.9562   83.8623   14.2805 N.3     1  UNL1       -0.2736
     14 C          61.9871   83.0177   15.0533 C.3     1  UNL1        0.0721
     15 C          61.9396   81.6624   14.4121 C.3     1  UNL1        0.0187
     16 C          62.8794   81.6696   13.2430 C.3     1  UNL1        0.0174
     17 C          63.5077   83.0293   13.1617 C.3     1  UNL1        0.0576
     18 C          64.5113   83.4771   12.1408 C.3     1  UNL1        0.0173
     19 N          65.1743   92.9282   11.7869 N.am    1  UNL1       -0.2805
     20 C          66.5028   93.1413   11.1239 C.2     1  UNL1        0.2535
     21 O          67.5096   92.0300   11.0873 O.2     1  UNL1       -0.2697
     22 H          64.5134   93.6576   11.8109 H       1  UNL1        0.1552
     23 C          66.8245   94.4658   10.4975 C.ar    1  UNL1        0.1032
     24 C          66.5260   95.8140   11.0834 C.ar    1  UNL1        0.1050
     25 C          65.8534   96.0744   12.3986 C.3     1  UNL1        0.0558
     26 N          67.0182   96.8560   10.1233 N.ar    1  UNL1       -0.0816
     27 O          67.6210   96.1518    8.9439 O.2     1  UNL1       -0.3579
     28 C          67.5012   94.6745    9.1752 C.ar    1  UNL1        0.1588
     29 C          67.9750   93.5955    8.2472 C.3     1  UNL1        0.0755
@<TRIPOS>BOND
     1     1     2    1
     2     2     3   ar
     3     3     4   ar
     4     4     8    1
     5     8     9    1
     6     9    10    1
     7    10    11    1
     8    11    13    1
     9    13    14    1
    10    14    15    1
    11    15    16    1
    12    16    17    1
    13    17    18    1
    14    11    12    1
    15     4     5   ar
    16     5     6   ar
    17     6     7   ar
    18     7    19    1
    19    19    20   am
    20    20    21    2
    21    20    23    1
    22    23    24   ar
    23    24    25    1
    24    24    26   ar
    25    26    27   ar
    26    27    28   ar
    27    28    29    1
    28     7     2   ar
    29    28    23   ar
    30    12     8    1
    31    17    13    1
    32    19    22    1
@<TRIPOS>MOLECULE
*****
 29 32 0 0 0
SMALL
GASTEIGER

@<TRIPOS>ATOM
      1 C          62.9269   89.6192   11.0503 C.3     1  UNL1        0.0324
      2 C          63.4239   89.0110   12.3282 C.ar    1  UNL1       -0.0071
      3 C          63.1672   87.5620   12.6187 C.ar    1  UNL1        0.0115
      4 C          63.6642   86.9538   13.8967 C.ar    1  UNL1        0.0476
      5 C          64.4178   87.7946   14.8841 C.ar    1  UNL1        0.0158
      6 C          64.6745   89.2436   14.5936 C.ar    1  UNL1        0.0156
      7 C          64.1775   89.8518   13.3156 C.ar    1  UNL1        0.0466
      8 N          63.4075   85.5047   14.1872 N.pl3   1  UNL1       -0.3061
      9 C          63.2367   84.8949   15.5469 C.3     1  UNL1        0.0923
     10 C          63.0001   83.4244   15.3690 C.3     1  UNL1        0.0391
     11 C          63.0247   83.1254   13.8993 C.3     1  UNL1        0.0790
     12 C          63.2764   84.4111   13.1689 C.3     1  UNL1        0.1067
     13 N          62.8314   81.7774   13.2704 N.3     1  UNL1       -0.2736
     14 C          62.2957   80.5543   13.9538 C.3     1  UNL1        0.0721
     15 C          62.2731   79.4368   12.9535 C.3     1  UNL1        0.0187
     16 C          62.7950   79.9692   11.6519 C.3     1  UNL1        0.0174
     17 C          63.1401   81.4158   11.8478 C.3     1  UNL1        0.0576
     18 C          63.6961   82.3387   10.8042 C.3     1  UNL1        0.0173
     19 N          64.4343   91.3009   13.0251 N.am    1  UNL1       -0.2805
     20 C          65.8237   91.8542   13.1403 C.2     1  UNL1        0.2535
     21 O          66.9564   90.9585   13.5460 O.2     1  UNL1       -0.2697
     22 H          63.6908   91.8888   12.7588 H       1  UNL1        0.1552
     23 C          66.0804   93.3033   12.8498 C.ar    1  UNL1        0.1032
     24 C          65.7911   94.0082   11.5577 C.ar    1  UNL1        0.1050
     25 C          65.1943   93.3878   10.3294 C.3     1  UNL1        0.0558
     26 N          66.2034   95.4424   11.7098 N.ar    1  UNL1       -0.0816
     27 O          66.7475   95.6239   13.0958 O.2     1  UNL1       -0.3579
     28 C          66.6715   94.3017   13.8004 C.ar    1  UNL1        0.1588
     29 C          67.1096   94.0265   15.2084 C.3     1  UNL1        0.0755
@<TRIPOS>BOND
     1     1     2    1
     2     2     3   ar
     3     3     4   ar
     4     4     8    1
     5     8     9    1
     6     9    10    1
     7    10    11    1
     8    11    13    1
     9    13    14    1
    10    14    15    1
    11    15    16    1
    12    16    17    1
    13    17    18    1
    14    11    12    1
    15     4     5   ar
    16     5     6   ar
    17     6     7   ar
    18     7    19    1
    19    19    20   am
    20    20    21    2
    21    20    23    1
    22    23    24   ar
    23    24    25    1
    24    24    26   ar
    25    26    27   ar
    26    27    28   ar
    27    28    29    1
    28     7     2   ar
    29    28    23   ar
    30    12     8    1
    31    17    13    1
    32    19    22    1
@<TRIPOS>MOLECULE
*****
 29 32 0 0 0
SMALL
GASTEIGER

@<TRIPOS>ATOM
      1 C          62.1304   87.7637   10.5239 C.3     1  UNL1        0.0324
      2 C          62.9677   88.3235   11.6355 C.ar    1  UNL1       -0.0071
      3 C          63.5911   89.6805   11.4946 C.ar    1  UNL1        0.0115
      4 C          64.4284   90.2403   12.6062 C.ar    1  UNL1        0.0476
      5 C          64.6422   89.4431   13.8586 C.ar    1  UNL1        0.0158
      6 C          64.0188   88.0862   13.9995 C.ar    1  UNL1        0.0156
      7 C          63.1815   87.5264   12.8879 C.ar    1  UNL1        0.0466
      8 N          65.0518   91.5974   12.4652 N.pl3   1  UNL1       -0.3061
      9 C          65.4462   92.5076   13.5903 C.3     1  UNL1        0.0923
     10 C          66.0284   93.7552   12.9949 C.3     1  UNL1        0.0391
     11 C          65.9939   93.6160   11.5017 C.3     1  UNL1        0.0790
     12 C          65.3903   92.2824   11.1744 C.3     1  UNL1        0.1067
     13 N          66.4779   94.6320   10.5101 N.3     1  UNL1       -0.2736
     14 C          67.0621   94.3378    9.1602 C.3     1  UNL1        0.0721
     15 C          67.4080   95.6446    8.5100 C.3     1  UNL1        0.0187
     16 C          67.0375   96.7464    9.4581 C.3     1  UNL1        0.0174
     17 C          66.4626   96.1206   10.6941 C.3     1  UNL1        0.0576
     18 C          65.9607   96.8545   11.9022 C.3     1  UNL1        0.0173
     19 N          62.5581   86.1693   13.0289 N.am    1  UNL1       -0.2805
     20 C          63.4229   84.9683   13.2731 C.2     1  UNL1        0.2535
     21 O          64.9112   85.1243   13.3765 O.2     1  UNL1       -0.2697
     22 H          61.5812   86.0669   12.9610 H       1  UNL1        0.1552
     23 C          62.7994   83.6113   13.4140 C.ar    1  UNL1        0.1032
     24 C          62.6803   82.5791   12.3322 C.ar    1  UNL1        0.1050
     25 C          63.1637   82.7227   10.9196 C.3     1  UNL1        0.0558
     26 N          61.9929   81.3781   12.9111 N.ar    1  UNL1       -0.0816
     27 O          61.6872   81.6680   14.3508 O.2     1  UNL1       -0.3579
     28 C          62.1857   83.0483   14.6616 C.ar    1  UNL1        0.1588
     29 C          62.0877   83.7434   15.9872 C.3     1  UNL1        0.0755
@<TRIPOS>BOND
     1     1     2    1
     2     2     3   ar
     3     3     4   ar
     4     4     8    1
     5     8     9    1
     6     9    10    1
     7    10    11    1
     8    11    13    1
     9    13    14    1
    10    14    15    1
    11    15    16    1
    12    16    17    1
    13    17    18    1
    14    11    12    1
    15     4     5   ar
    16     5     6   ar
    17     6     7   ar
    18     7    19    1
    19    19    20   am
    20    20    21    2
    21    20    23    1
    22    23    24   ar
    23    24    25    1
    24    24    26   ar
    25    26    27   ar
    26    27    28   ar
    27    28    29    1
    28     7     2   ar
    29    28    23   ar
    30    12     8    1
    31    17    13    1
    32    19    22    1
@<TRIPOS>MOLECULE
*****
 29 32 0 0 0
SMALL
GASTEIGER

@<TRIPOS>ATOM
      1 C          60.0489   95.4035    1.1018 C.3     1  UNL1        0.0324
      2 C          60.7219   94.2627    1.8058 C.ar    1  UNL1       -0.0071
      3 C          59.9654   93.4552    2.8185 C.ar    1  UNL1        0.0115
      4 C          60.6384   92.3144    3.5225 C.ar    1  UNL1        0.0476
      5 C          62.0679   91.9811    3.2137 C.ar    1  UNL1        0.0158
      6 C          62.8244   92.7886    2.2010 C.ar    1  UNL1        0.0156
      7 C          62.1514   93.9294    1.4970 C.ar    1  UNL1        0.0466
      8 N          59.8819   91.5069    4.5352 N.pl3   1  UNL1       -0.3061
      9 C          58.4189   91.6269    4.8440 C.3     1  UNL1        0.0923
     10 C          58.0884   90.6318    5.9166 C.3     1  UNL1        0.0391
     11 C          59.3471   89.8968    6.2708 C.3     1  UNL1        0.0790
     12 C          60.4555   90.4377    5.4171 C.3     1  UNL1        0.1067
     13 N          59.4749   88.8115    7.2984 N.3     1  UNL1       -0.2736
     14 C          59.0246   87.3896    7.1395 C.3     1  UNL1        0.0721
     15 C          59.3469   86.6569    8.4081 C.3     1  UNL1        0.0187
     16 C          59.9963   87.6260    9.3509 C.3     1  UNL1        0.0174
     17 C          60.0755   88.9577    8.6651 C.3     1  UNL1        0.0576
     18 C          60.6537   90.2148    9.2442 C.3     1  UNL1        0.0173
     19 N          62.9079   94.7369    0.4842 N.am    1  UNL1       -0.2805
     20 C          62.9725   94.2797   -0.9429 C.2     1  UNL1        0.2535
     21 O          62.2805   93.0151   -1.3574 O.2     1  UNL1       -0.2697
     22 H          63.3621   95.5669    0.7563 H       1  UNL1        0.1552
     23 C          63.7290   95.0872   -1.9557 C.ar    1  UNL1        0.1032
     24 C          64.9479   95.9194   -1.6876 C.ar    1  UNL1        0.1050
     25 C          65.6242   96.0901   -0.3597 C.3     1  UNL1        0.0558
     26 N          65.3717   96.5507   -2.9805 N.ar    1  UNL1       -0.0816
     27 O          64.4147   96.1088   -4.0478 O.2     1  UNL1       -0.3579
     28 C          63.3994   95.2043   -3.4143 C.ar    1  UNL1        0.1588
     29 C          62.2555   94.5345   -4.1163 C.3     1  UNL1        0.0755
@<TRIPOS>BOND
     1     1     2    1
     2     2     3   ar
     3     3     4   ar
     4     4     8    1
     5     8     9    1
     6     9    10    1
     7    10    11    1
     8    11    13    1
     9    13    14    1
    10    14    15    1
    11    15    16    1
    12    16    17    1
    13    17    18    1
    14    11    12    1
    15     4     5   ar
    16     5     6   ar
    17     6     7   ar
    18     7    19    1
    19    19    20   am
    20    20    21    2
    21    20    23    1
    22    23    24   ar
    23    24    25    1
    24    24    26   ar
    25    26    27   ar
    26    27    28   ar
    27    28    29    1
    28     7     2   ar
    29    28    23   ar
    30    12     8    1
    31    17    13    1
    32    19    22    1
@<TRIPOS>MOLECULE
*****
 29 32 0 0 0
SMALL
GASTEIGER

@<TRIPOS>ATOM
      1 C          62.8968   91.4518   10.0011 C.3     1  UNL1        0.0324
      2 C          63.2005   90.4282   11.0546 C.ar    1  UNL1       -0.0071
      3 C          62.7980   88.9980   10.8489 C.ar    1  UNL1        0.0115
      4 C          63.1017   87.9744   11.9025 C.ar    1  UNL1        0.0476
      5 C          63.8079   88.3810   13.1618 C.ar    1  UNL1        0.0158
      6 C          64.2104   89.8113   13.3675 C.ar    1  UNL1        0.0156
      7 C          63.9067   90.8348   12.3139 C.ar    1  UNL1        0.0466
      8 N          62.6991   86.5441   11.6967 N.pl3   1  UNL1       -0.3061
      9 C          61.9298   86.0041   10.5278 C.3     1  UNL1        0.0923
     10 C          61.7504   84.5290   10.7324 C.3     1  UNL1        0.0391
     11 C          62.4089   84.1573   12.0279 C.3     1  UNL1        0.0790
     12 C          62.9952   85.4027   12.6239 C.3     1  UNL1        0.1067
     13 N          62.4703   82.7817   12.6229 N.3     1  UNL1       -0.2736
     14 C          62.0975   82.4114   14.0278 C.3     1  UNL1        0.0721
     15 C          62.3121   80.9358   14.1907 C.3     1  UNL1        0.0187
     16 C          62.8175   80.3942   12.8864 C.3     1  UNL1        0.0174
     17 C          62.9153   81.5350   11.9174 C.3     1  UNL1        0.0576
     18 C          63.3769   81.4450   10.4931 C.3     1  UNL1        0.0173
     19 N          64.3093   92.2651   12.5197 N.am    1  UNL1       -0.2805
     20 C          65.4735   92.8329   11.7633 C.2     1  UNL1        0.2535
     21 O          66.2352   91.9704   10.8010 O.2     1  UNL1       -0.2697
     22 H          63.8094   92.8312   13.1512 H       1  UNL1        0.1552
     23 C          65.8761   94.2632   11.9690 C.ar    1  UNL1        0.1032
     24 C          65.7417   95.3700   10.9657 C.ar    1  UNL1        0.1050
     25 C          65.1812   95.2409    9.5804 C.3     1  UNL1        0.0558
     26 N          66.2662   96.6286   11.5908 N.ar    1  UNL1       -0.0816
     27 O          66.7248   96.2996   12.9806 O.2     1  UNL1       -0.3579
     28 C          66.4837   94.8376   13.2144 C.ar    1  UNL1        0.1588
     29 C          66.7954   94.0827   14.4725 C.3     1  UNL1        0.0755
@<TRIPOS>BOND
     1     1     2    1
     2     2     3   ar
     3     3     4   ar
     4     4     8    1
     5     8     9    1
     6     9    10    1
     7    10    11    1
     8    11    13    1
     9    13    14    1
    10    14    15    1
    11    15    16    1
    12    16    17    1
    13    17    18    1
    14    11    12    1
    15     4     5   ar
    16     5     6   ar
    17     6     7   ar
    18     7    19    1
    19    19    20   am
    20    20    21    2
    21    20    23    1
    22    23    24   ar
    23    24    25    1
    24    24    26   ar
    25    26    27   ar
    26    27    28   ar
    27    28    29    1
    28     7     2   ar
    29    28    23   ar
    30    12     8    1
    31    17    13    1
    32    19    22    1
@<TRIPOS>MOLECULE
*****
 29 32 0 0 0
SMALL
GASTEIGER

@<TRIPOS>ATOM
      1 C          60.0708   95.3330    1.0330 C.3     1  UNL1        0.0324
      2 C          60.7458   94.2104    1.7639 C.ar    1  UNL1       -0.0071
      3 C          59.9865   93.4169    2.7855 C.ar    1  UNL1        0.0115
      4 C          60.6615   92.2944    3.5165 C.ar    1  UNL1        0.0476
      5 C          62.0958   91.9654    3.2258 C.ar    1  UNL1        0.0158
      6 C          62.8551   92.7589    2.2042 C.ar    1  UNL1        0.0156
      7 C          62.1801   93.8815    1.4733 C.ar    1  UNL1        0.0466
      8 N          59.9021   91.5008    4.5381 N.pl3   1  UNL1       -0.3061
      9 C          58.4432   91.6410    4.8572 C.3     1  UNL1        0.0923
     10 C          58.1078   90.6546    5.9363 C.3     1  UNL1        0.0391
     11 C          59.3595   89.9047    6.2842 C.3     1  UNL1        0.0790
     12 C          60.4684   90.4277    5.4200 C.3     1  UNL1        0.1067
     13 N          59.4809   88.8219    7.3151 N.3     1  UNL1       -0.2736
     14 C          59.0119   87.4051    7.1651 C.3     1  UNL1        0.0721
     15 C          59.3338   86.6735    8.4344 C.3     1  UNL1        0.0187
     16 C          60.0018   87.6381    9.3688 C.3     1  UNL1        0.0174
     17 C          60.0927   88.9660    8.6771 C.3     1  UNL1        0.0576
     18 C          60.6906   90.2180    9.2472 C.3     1  UNL1        0.0173
     19 N          62.9394   94.6750    0.4516 N.am    1  UNL1       -0.2805
     20 C          62.9639   94.2268   -0.9796 C.2     1  UNL1        0.2535
     21 O          62.2290   92.9849   -1.3892 O.2     1  UNL1       -0.2697
     22 H          63.4218   95.4901    0.7205 H       1  UNL1        0.1552
     23 C          63.7233   95.0203   -2.0012 C.ar    1  UNL1        0.1032
     24 C          63.4009   95.1133   -3.4632 C.ar    1  UNL1        0.1050
     25 C          62.2626   94.4289   -4.1602 C.3     1  UNL1        0.0558
     26 N          64.4167   96.0106   -4.1057 N.ar    1  UNL1       -0.0816
     27 O          65.3669   96.4723   -3.0408 O.2     1  UNL1       -0.3579
     28 C          64.9383   95.8603   -1.7401 C.ar    1  UNL1        0.1588
     29 C          65.6073   96.0541   -0.4116 C.3     1  UNL1        0.0755
@<TRIPOS>BOND
     1     1     2    1
     2     2     3   ar
     3     3     4   ar
     4     4     8    1
     5     8     9    1
     6     9    10    1
     7    10    11    1
     8    11    13    1
     9    13    14    1
    10    14    15    1
    11    15    16    1
    12    16    17    1
    13    17    18    1
    14    11    12    1
    15     4     5   ar
    16     5     6   ar
    17     6     7   ar
    18     7    19    1
    19    19    20   am
    20    20    21    2
    21    20    23    1
    22    23    24   ar
    23    24    25    1
    24    24    26   ar
    25    26    27   ar
    26    27    28   ar
    27    28    29    1
    28     7     2   ar
    29    28    23   ar
    30    12     8    1
    31    17    13    1
    32    19    22    1
@<TRIPOS>MOLECULE
*****
 29 32 0 0 0
SMALL
GASTEIGER

@<TRIPOS>ATOM
      1 C          62.2079   90.8059    9.7428 C.3     1  UNL1        0.0324
      2 C          61.6786   89.4033    9.6942 C.ar    1  UNL1       -0.0071
      3 C          62.2082   88.3685   10.6422 C.ar    1  UNL1        0.0115
      4 C          61.6788   86.9658   10.5935 C.ar    1  UNL1        0.0476
      5 C          60.6199   86.5980    9.5969 C.ar    1  UNL1        0.0158
      6 C          60.0904   87.6327    8.6489 C.ar    1  UNL1        0.0156
      7 C          60.6197   89.0354    8.6975 C.ar    1  UNL1        0.0466
      8 N          62.2085   85.9310   11.5416 N.pl3   1  UNL1       -0.3061
      9 C          63.1631   86.1773   12.6721 C.3     1  UNL1        0.0923
     10 C          63.4210   84.8668   13.3548 C.3     1  UNL1        0.0391
     11 C          62.6258   83.8105   12.6461 C.3     1  UNL1        0.0790
     12 C          61.8764   84.4683   11.5256 C.3     1  UNL1        0.1067
     13 N          62.5868   82.3526   12.9966 N.3     1  UNL1       -0.2736
     14 C          62.1942   81.7752   14.3241 C.3     1  UNL1        0.0721
     15 C          62.2984   80.2818   14.2290 C.3     1  UNL1        0.0187
     16 C          62.7554   79.9364   12.8427 C.3     1  UNL1        0.0174
     17 C          62.9337   81.2162   12.0811 C.3     1  UNL1        0.0576
     18 C          63.3804   81.3382   10.6543 C.3     1  UNL1        0.0173
     19 N          60.0901   90.0702    7.7494 N.am    1  UNL1       -0.2805
     20 C          59.4516   89.6486    6.4593 C.2     1  UNL1        0.2535
     21 O          59.3427   88.1922    6.1171 O.2     1  UNL1       -0.2697
     22 H          60.1615   91.0261    7.9740 H       1  UNL1        0.1552
     23 C          58.9220   90.6834    5.5112 C.ar    1  UNL1        0.1032
     24 C          59.7458   91.5904    4.6460 C.ar    1  UNL1        0.1050
     25 C          61.2438   91.6219    4.5769 C.3     1  UNL1        0.0558
     26 N          58.8085   92.4604    3.8620 N.ar    1  UNL1       -0.0816
     27 O          57.4054   92.0910    4.2427 O.2     1  UNL1       -0.3579
     28 C          57.4755   90.9927    5.2620 C.ar    1  UNL1        0.1588
     29 C          56.3048   90.3216    5.9170 C.3     1  UNL1        0.0755
@<TRIPOS>BOND
     1     1     2    1
     2     2     3   ar
     3     3     4   ar
     4     4     8    1
     5     8     9    1
     6     9    10    1
     7    10    11    1
     8    11    13    1
     9    13    14    1
    10    14    15    1
    11    15    16    1
    12    16    17    1
    13    17    18    1
    14    11    12    1
    15     4     5   ar
    16     5     6   ar
    17     6     7   ar
    18     7    19    1
    19    19    20   am
    20    20    21    2
    21    20    23    1
    22    23    24   ar
    23    24    25    1
    24    24    26   ar
    25    26    27   ar
    26    27    28   ar
    27    28    29    1
    28     7     2   ar
    29    28    23   ar
    30    12     8    1
    31    17    13    1
    32    19    22    1
@<TRIPOS>MOLECULE
*****
 29 32 0 0 0
SMALL
GASTEIGER

@<TRIPOS>ATOM
      1 C          62.2957   86.8441   10.7808 C.3     1  UNL1        0.0324
      2 C          62.9610   86.8810   12.1247 C.ar    1  UNL1       -0.0071
      3 C          63.3336   88.1967   12.7412 C.ar    1  UNL1        0.0115
      4 C          63.9989   88.2336   14.0851 C.ar    1  UNL1        0.0476
      5 C          64.2916   86.9549   14.8125 C.ar    1  UNL1        0.0158
      6 C          63.9189   85.6392   14.1960 C.ar    1  UNL1        0.0156
      7 C          63.2536   85.6023   12.8521 C.ar    1  UNL1        0.0466
      8 N          64.3715   89.5494   14.7016 N.pl3   1  UNL1       -0.3061
      9 C          63.5123   90.3681   15.6188 C.3     1  UNL1        0.0923
     10 C          64.2786   91.6021   15.9932 C.3     1  UNL1        0.0391
     11 C          65.6114   91.5460   15.3072 C.3     1  UNL1        0.0790
     12 C          65.6689   90.2773   14.5090 C.3     1  UNL1        0.1067
     13 N          66.6963   92.5774   15.4028 N.3     1  UNL1       -0.2736
     14 C          67.6945   92.7066   16.5149 C.3     1  UNL1        0.0721
     15 C          68.5886   93.8698   16.2025 C.3     1  UNL1        0.0187
     16 C          68.1429   94.4594   14.8972 C.3     1  UNL1        0.0174
     17 C          66.9734   93.6607   14.4030 C.3     1  UNL1        0.0576
     18 C          66.2143   93.9028   13.1321 C.3     1  UNL1        0.0173
     19 N          62.8810   84.2865   12.2356 N.am    1  UNL1       -0.2805
     20 C          63.6155   83.0392   12.6288 C.2     1  UNL1        0.2535
     21 O          64.7227   83.1076   13.6385 O.2     1  UNL1       -0.2697
     22 H          62.1543   84.2416   11.5729 H       1  UNL1        0.1552
     23 C          63.2429   81.7234   12.0123 C.ar    1  UNL1        0.1032
     24 C          63.4432   81.3337   10.5778 C.ar    1  UNL1        0.1050
     25 C          64.0513   82.1912    9.5079 C.3     1  UNL1        0.0558
     26 N          62.9286   79.9358   10.4011 N.ar    1  UNL1       -0.0816
     27 O          62.4102   79.4616   11.7264 O.2     1  UNL1       -0.3579
     28 C          62.6045   80.5665   12.7223 C.ar    1  UNL1        0.1588
     29 C          62.2267   80.5222   14.1733 C.3     1  UNL1        0.0755
@<TRIPOS>BOND
     1     1     2    1
     2     2     3   ar
     3     3     4   ar
     4     4     8    1
     5     8     9    1
     6     9    10    1
     7    10    11    1
     8    11    13    1
     9    13    14    1
    10    14    15    1
    11    15    16    1
    12    16    17    1
    13    17    18    1
    14    11    12    1
    15     4     5   ar
    16     5     6   ar
    17     6     7   ar
    18     7    19    1
    19    19    20   am
    20    20    21    2
    21    20    23    1
    22    23    24   ar
    23    24    25    1
    24    24    26   ar
    25    26    27   ar
    26    27    28   ar
    27    28    29    1
    28     7     2   ar
    29    28    23   ar
    30    12     8    1
    31    17    13    1
    32    19    22    1
@<TRIPOS>MOLECULE
*****
 29 32 0 0 0
SMALL
GASTEIGER

@<TRIPOS>ATOM
      1 C          56.5985   91.7734    4.7634 C.3     1  UNL1        0.0324
      2 C          57.9868   91.2861    5.0553 C.ar    1  UNL1       -0.0071
      3 C          58.2170   90.2916    6.1543 C.ar    1  UNL1        0.0115
      4 C          59.6053   89.8043    6.4461 C.ar    1  UNL1        0.0476
      5 C          60.7634   90.3115    5.6390 C.ar    1  UNL1        0.0158
      6 C          60.5331   91.3061    4.5400 C.ar    1  UNL1        0.0156
      7 C          59.1449   91.7934    4.2482 C.ar    1  UNL1        0.0466
      8 N          59.8355   88.8097    7.5452 N.pl3   1  UNL1       -0.3061
      9 C          59.0239   87.5743    7.8006 C.3     1  UNL1        0.0923
     10 C          59.6045   86.8770    8.9950 C.3     1  UNL1        0.0391
     11 C          60.7750   87.6814    9.4778 C.3     1  UNL1        0.0790
     12 C          60.9177   88.8759    8.5818 C.3     1  UNL1        0.1067
     13 N          61.6491   87.3496   10.6507 N.3     1  UNL1       -0.2736
     14 C          61.8383   85.9886   11.2522 C.3     1  UNL1        0.0721
     15 C          62.7937   86.1184   12.4013 C.3     1  UNL1        0.0187
     16 C          63.1949   87.5597   12.5099 C.3     1  UNL1        0.0174
     17 C          62.4876   88.3206   11.4280 C.3     1  UNL1        0.0576
     18 C          62.5991   89.7938   11.1689 C.3     1  UNL1        0.0173
     19 N          58.9147   92.7880    3.1491 N.am    1  UNL1       -0.2805
     20 C          60.0263   93.1295    2.2017 C.2     1  UNL1        0.2535
     21 O          61.3681   92.4763    2.3532 O.2     1  UNL1       -0.2697
     22 H          58.0340   93.2167    3.0496 H       1  UNL1        0.1552
     23 C          59.7961   94.1241    1.1026 C.ar    1  UNL1        0.1032
     24 C          59.9236   95.6139    1.2208 C.ar    1  UNL1        0.1050
     25 C          60.3037   96.3708    2.4588 C.3     1  UNL1        0.0558
     26 N          59.6043   96.2140   -0.1163 N.ar    1  UNL1       -0.0816
     27 O          59.2794   95.0950   -1.0610 O.2     1  UNL1       -0.3579
     28 C          59.3980   93.8032   -0.3076 C.ar    1  UNL1        0.1588
     29 C          59.1602   92.4317   -0.8663 C.3     1  UNL1        0.0755
@<TRIPOS>BOND
     1     1     2    1
     2     2     3   ar
     3     3     4   ar
     4     4     8    1
     5     8     9    1
     6     9    10    1
     7    10    11    1
     8    11    13    1
     9    13    14    1
    10    14    15    1
    11    15    16    1
    12    16    17    1
    13    17    18    1
    14    11    12    1
    15     4     5   ar
    16     5     6   ar
    17     6     7   ar
    18     7    19    1
    19    19    20   am
    20    20    21    2
    21    20    23    1
    22    23    24   ar
    23    24    25    1
    24    24    26   ar
    25    26    27   ar
    26    27    28   ar
    27    28    29    1
    28     7     2   ar
    29    28    23   ar
    30    12     8    1
    31    17    13    1
    32    19    22    1
