@<TRIPOS>MOLECULE
*****
 26 28 0 0 0
SMALL
GASTEIGER

@<TRIPOS>ATOM
      1 C          63.1111   86.5722   16.4998 C.ar    1  UNL1        0.3008
      2 N          61.9297   85.7342   16.8897 N.ar    1  UNL1       -0.1925
      3 C          61.9312   84.5033   16.0324 C.ar    1  UNL1        0.1241
      4 C          63.1136   84.5806   15.1126 C.ar    1  UNL1        0.1222
      5 N          63.8429   85.8592   15.4015 N.ar    1  UNL1       -0.2769
      6 C          65.0856   86.3403   14.7130 C.3     1  UNL1        0.1352
      7 C          63.4991   83.5587   14.0845 C.2     1  UNL1        0.2129
      8 O          63.9838   82.2064   14.5162 O.2     1  UNL1       -0.2850
      9 C          63.4000   83.8891   12.6247 C.ar    1  UNL1        0.0405
     10 C          62.5138   85.0097   12.1678 C.ar    1  UNL1        0.0041
     11 C          62.4147   85.3401   10.7080 C.ar    1  UNL1        0.0115
     12 C          63.2018   84.5499    9.7050 C.ar    1  UNL1        0.0577
     13 CL         63.1027   84.8803    8.2453 Cl      1  UNL1       -0.0822
     14 C          64.0880   83.4292   10.1619 C.ar    1  UNL1        0.0115
     15 C          64.1871   83.0988   11.6217 C.ar    1  UNL1        0.0041
     16 O          63.4937   87.8915   17.1024 O.3     1  UNL1       -0.4478
     17 C          62.8299   89.1516   16.6319 C.3     1  UNL1        0.2086
     18 N          64.8075   91.6999   13.4942 N.3     1  UNL1       -0.2740
     19 C          65.0534   91.9749   14.9481 C.3     1  UNL1        0.0722
     20 C          64.3942   91.1254   15.9940 C.3     1  UNL1        0.0211
     21 C          63.4891   90.0010   15.5860 C.3     1  UNL1        0.0466
     22 C          63.2432   89.7261   14.1321 C.3     1  UNL1        0.0211
     23 C          63.9024   90.5755   13.0862 C.3     1  UNL1        0.0722
     24 C          66.3807   93.6666   12.8561 C.3     1  UNL1        0.0173
     25 C          65.4667   92.5494   12.4483 C.3     1  UNL1        0.0576
     26 C          65.2118   92.2816   10.9946 C.3     1  UNL1        0.0173
@<TRIPOS>BOND
     1    24    25    1
     2    25    26    1
     3    25    18    1
     4    18    19    1
     5    19    20    1
     6    20    21    1
     7    21    17    1
     8    17    16    1
     9    16     1    1
    10     1     2   ar
    11     2     3   ar
    12     3     4   ar
    13     4     7    1
    14     7     8    2
    15     7     9    1
    16     9    10   ar
    17    10    11   ar
    18    11    12   ar
    19    12    13    1
    20    12    14   ar
    21    14    15   ar
    22     4     5   ar
    23     5     6    1
    24    21    22    1
    25    22    23    1
    26    23    18    1
    27     5     1   ar
    28    15     9   ar
@<TRIPOS>MOLECULE
*****
 26 28 0 0 0
SMALL
GASTEIGER

@<TRIPOS>ATOM
      1 C          64.7669   91.8848   15.0573 C.ar    1  UNL1        0.3008
      2 N          65.9134   92.4459   15.8450 N.ar    1  UNL1       -0.1925
      3 C          67.0215   92.7671   14.8863 C.ar    1  UNL1        0.1241
      4 C          66.5597   92.4046   13.5060 C.ar    1  UNL1        0.1222
      5 N          65.1663   91.8592   13.6115 N.ar    1  UNL1       -0.2769
      6 C          64.3208   91.3736   12.4718 C.3     1  UNL1        0.1352
      7 C          67.3521   92.5600   12.2419 C.2     1  UNL1        0.2129
      8 O          68.5055   91.6427   11.9622 O.2     1  UNL1       -0.2850
      9 C          66.9912   93.6327   11.2575 C.ar    1  UNL1        0.0405
     10 C          66.1770   94.8126   11.6990 C.ar    1  UNL1        0.0041
     11 C          65.8160   95.8854   10.7146 C.ar    1  UNL1        0.0115
     12 C          66.2693   95.7782    9.2888 C.ar    1  UNL1        0.0577
     13 CL         65.9083   96.8509    8.3044 Cl      1  UNL1       -0.0822
     14 C          67.0835   94.5983    8.8473 C.ar    1  UNL1        0.0115
     15 C          67.4444   93.5256    9.8317 C.ar    1  UNL1        0.0041
     16 O          63.4519   91.4292   15.6168 O.3     1  UNL1       -0.4478
     17 C          63.4132   90.3498   16.6577 C.3     1  UNL1        0.2086
     18 N          63.7016   86.0298   15.4313 N.3     1  UNL1       -0.2740
     19 C          63.0820   86.3961   16.7473 C.3     1  UNL1        0.0722
     20 C          62.9859   87.8361   17.1561 C.3     1  UNL1        0.0211
     21 C          63.5094   88.9098   16.2489 C.3     1  UNL1        0.0466
     22 C          64.1290   88.5435   14.9329 C.3     1  UNL1        0.0211
     23 C          64.2251   87.1035   14.5241 C.3     1  UNL1        0.0722
     24 C          64.9636   84.1185   14.2048 C.3     1  UNL1        0.0173
     25 C          63.7977   84.5898   15.0225 C.3     1  UNL1        0.0576
     26 C          62.7280   83.6211   15.4314 C.3     1  UNL1        0.0173
@<TRIPOS>BOND
     1    24    25    1
     2    25    26    1
     3    25    18    1
     4    18    19    1
     5    19    20    1
     6    20    21    1
     7    21    17    1
     8    17    16    1
     9    16     1    1
    10     1     2   ar
    11     2     3   ar
    12     3     4   ar
    13     4     7    1
    14     7     8    2
    15     7     9    1
    16     9    10   ar
    17    10    11   ar
    18    11    12   ar
    19    12    13    1
    20    12    14   ar
    21    14    15   ar
    22     4     5   ar
    23     5     6    1
    24    21    22    1
    25    22    23    1
    26    23    18    1
    27     5     1   ar
    28    15     9   ar
@<TRIPOS>MOLECULE
*****
 26 28 0 0 0
SMALL
GASTEIGER

@<TRIPOS>ATOM
      1 C          63.8897   90.2548   13.0230 C.ar    1  UNL1        0.3008
      2 N          63.5655   90.6653   11.6172 N.ar    1  UNL1       -0.1925
      3 C          64.3412   91.9113   11.3075 C.ar    1  UNL1        0.1241
      4 C          65.1448   92.2709   12.5220 C.ar    1  UNL1        0.1222
      5 N          64.8658   91.2471   13.5823 N.ar    1  UNL1       -0.2769
      6 C          65.4588   91.2203   14.9597 C.3     1  UNL1        0.1352
      7 C          66.0657   93.4476   12.6532 C.2     1  UNL1        0.2129
      8 O          66.6576   93.7915   13.9879 O.2     1  UNL1       -0.2850
      9 C          66.3948   94.2803   11.4498 C.ar    1  UNL1        0.0405
     10 C          66.0257   95.7339   11.4198 C.ar    1  UNL1        0.0041
     11 C          66.3548   96.5666   10.2164 C.ar    1  UNL1        0.0115
     12 C          67.0530   95.9458    9.0429 C.ar    1  UNL1        0.0577
     13 CL         67.3821   96.7785    7.8395 Cl      1  UNL1       -0.0822
     14 C          67.4221   94.4923    9.0728 C.ar    1  UNL1        0.0115
     15 C          67.0930   93.6595   10.2762 C.ar    1  UNL1        0.0041
     16 O          63.3353   89.0615   13.7432 O.3     1  UNL1       -0.4478
     17 C          64.2435   87.9348   14.1376 C.3     1  UNL1        0.2086
     18 N          63.0100   83.6760   13.3690 N.3     1  UNL1       -0.2740
     19 C          62.6854   84.7434   12.3664 C.3     1  UNL1        0.0722
     20 C          63.0966   86.1630   12.6226 C.3     1  UNL1        0.0211
     21 C          63.8323   86.5152   13.8814 C.3     1  UNL1        0.0466
     22 C          64.1569   85.4478   14.8840 C.3     1  UNL1        0.0211
     23 C          63.7457   84.0282   14.6278 C.3     1  UNL1        0.0722
     24 C          62.9837   81.5842   11.8283 C.3     1  UNL1        0.0173
     25 C          62.5988   82.2564   13.1128 C.3     1  UNL1        0.0576
     26 C          61.8027   81.5089   14.1411 C.3     1  UNL1        0.0173
@<TRIPOS>BOND
     1    24    25    1
     2    25    26    1
     3    25    18    1
     4    18    19    1
     5    19    20    1
     6    20    21    1
     7    21    17    1
     8    17    16    1
     9    16     1    1
    10     1     2   ar
    11     2     3   ar
    12     3     4   ar
    13     4     7    1
    14     7     8    2
    15     7     9    1
    16     9    10   ar
    17    10    11   ar
    18    11    12   ar
    19    12    13    1
    20    12    14   ar
    21    14    15   ar
    22     4     5   ar
    23     5     6    1
    24    21    22    1
    25    22    23    1
    26    23    18    1
    27     5     1   ar
    28    15     9   ar
@<TRIPOS>MOLECULE
*****
 26 28 0 0 0
SMALL
GASTEIGER

@<TRIPOS>ATOM
      1 C          61.7179   90.3161   10.5035 C.ar    1  UNL1        0.3008
      2 N          62.9265   90.9828    9.9163 N.ar    1  UNL1       -0.1925
      3 C          63.9015   91.2370   11.0275 C.ar    1  UNL1        0.1241
      4 C          63.2955   90.7274   12.3015 C.ar    1  UNL1        0.1222
      5 N          61.9459   90.1582   11.9778 N.ar    1  UNL1       -0.2769
      6 C          60.9920   89.5399   12.9562 C.3     1  UNL1        0.1352
      7 C          63.9279   90.7781   13.6607 C.2     1  UNL1        0.2129
      8 O          64.7061   91.9895   14.0812 O.2     1  UNL1       -0.2850
      9 C          63.7822   89.6172   14.5995 C.ar    1  UNL1        0.0405
     10 C          64.2215   88.2479   14.1729 C.ar    1  UNL1        0.0041
     11 C          64.0757   87.0871   15.1117 C.ar    1  UNL1        0.0115
     12 C          63.4908   87.2956   16.4771 C.ar    1  UNL1        0.0577
     13 CL         63.3451   86.1348   17.4158 Cl      1  UNL1       -0.0822
     14 C          63.0515   88.6649   16.9037 C.ar    1  UNL1        0.0115
     15 C          63.1972   89.8257   15.9649 C.ar    1  UNL1        0.0041
     16 O          60.4959   89.8832    9.7491 O.3     1  UNL1       -0.4478
     17 C          60.5243   88.6243    8.9342 C.3     1  UNL1        0.2086
     18 N          62.5541   84.9459   10.5464 N.3     1  UNL1       -0.2740
     19 C          62.7959   85.3760    9.1298 C.3     1  UNL1        0.0722
     20 C          62.1193   86.6021    8.5925 C.3     1  UNL1        0.0211
     21 C          61.2009   87.3981    9.4716 C.3     1  UNL1        0.0466
     22 C          60.9592   86.9680   10.8881 C.3     1  UNL1        0.0211
     23 C          61.6358   85.7419   11.4255 C.3     1  UNL1        0.0722
     24 C          62.8009   83.1417   12.3994 C.3     1  UNL1        0.0173
     25 C          63.2308   83.7197   11.0837 C.3     1  UNL1        0.0576
     26 C          64.3372   83.0717   10.3055 C.3     1  UNL1        0.0173
@<TRIPOS>BOND
     1    24    25    1
     2    25    26    1
     3    25    18    1
     4    18    19    1
     5    19    20    1
     6    20    21    1
     7    21    17    1
     8    17    16    1
     9    16     1    1
    10     1     2   ar
    11     2     3   ar
    12     3     4   ar
    13     4     7    1
    14     7     8    2
    15     7     9    1
    16     9    10   ar
    17    10    11   ar
    18    11    12   ar
    19    12    13    1
    20    12    14   ar
    21    14    15   ar
    22     4     5   ar
    23     5     6    1
    24    21    22    1
    25    22    23    1
    26    23    18    1
    27     5     1   ar
    28    15     9   ar
@<TRIPOS>MOLECULE
*****
 26 28 0 0 0
SMALL
GASTEIGER

@<TRIPOS>ATOM
      1 C          64.0625   90.8540   13.8893 C.ar    1  UNL1        0.3008
      2 N          63.5530   91.3858   12.5825 N.ar    1  UNL1       -0.1925
      3 C          63.0445   90.2270   11.7770 C.ar    1  UNL1        0.1241
      4 C          63.2398   88.9790   12.5860 C.ar    1  UNL1        0.1222
      5 N          63.8689   89.3664   13.8914 N.ar    1  UNL1       -0.2769
      6 C          64.2395   88.4308   15.0037 C.3     1  UNL1        0.1352
      7 C          62.8708   87.5878   12.1637 C.2     1  UNL1        0.2129
      8 O          63.4333   86.4071   12.8981 O.2     1  UNL1       -0.2850
      9 C          61.9392   87.3773   11.0070 C.ar    1  UNL1        0.0405
     10 C          62.3317   86.4627    9.8848 C.ar    1  UNL1        0.0041
     11 C          61.4001   86.2522    8.7281 C.ar    1  UNL1        0.0115
     12 C          60.0761   86.9564    8.6936 C.ar    1  UNL1        0.0577
     13 CL         59.1447   86.7459    7.5369 Cl      1  UNL1       -0.0822
     14 C          59.6837   87.8710    9.8158 C.ar    1  UNL1        0.0115
     15 C          60.6153   88.0815   10.9725 C.ar    1  UNL1        0.0041
     16 O          64.6605   91.6669   14.9990 O.3     1  UNL1       -0.4478
     17 C          66.0047   92.3078   14.8189 C.3     1  UNL1        0.2086
     18 N          67.5456   93.1796   10.6818 N.3     1  UNL1       -0.2740
     19 C          66.4916   94.0567   11.2899 C.3     1  UNL1        0.0722
     20 C          65.9780   93.7661   12.6689 C.3     1  UNL1        0.0211
     21 C          66.5183   92.5984   13.4399 C.3     1  UNL1        0.0466
     22 C          67.5723   91.7213   12.8318 C.3     1  UNL1        0.0211
     23 C          68.0859   92.0119   11.4528 C.3     1  UNL1        0.0722
     24 C          67.8041   94.8078    8.6738 C.3     1  UNL1        0.0173
     25 C          68.0592   93.4702    9.3028 C.3     1  UNL1        0.0576
     26 C          68.8281   92.4232    8.5527 C.3     1  UNL1        0.0173
@<TRIPOS>BOND
     1    24    25    1
     2    25    26    1
     3    25    18    1
     4    18    19    1
     5    19    20    1
     6    20    21    1
     7    21    17    1
     8    17    16    1
     9    16     1    1
    10     1     2   ar
    11     2     3   ar
    12     3     4   ar
    13     4     7    1
    14     7     8    2
    15     7     9    1
    16     9    10   ar
    17    10    11   ar
    18    11    12   ar
    19    12    13    1
    20    12    14   ar
    21    14    15   ar
    22     4     5   ar
    23     5     6    1
    24    21    22    1
    25    22    23    1
    26    23    18    1
    27     5     1   ar
    28    15     9   ar
@<TRIPOS>MOLECULE
*****
 26 28 0 0 0
SMALL
GASTEIGER

@<TRIPOS>ATOM
      1 C          62.7568   90.3104   12.3156 C.ar    1  UNL1        0.3008
      2 N          62.9853   89.9347   13.7497 N.ar    1  UNL1       -0.1925
      3 C          64.2655   90.5749   14.1983 C.ar    1  UNL1        0.1241
      4 C          64.8282   91.3464   13.0415 C.ar    1  UNL1        0.1222
      5 N          63.8958   91.1829   11.8779 N.ar    1  UNL1       -0.2769
      6 C          64.0714   91.7860   10.5158 C.3     1  UNL1        0.1352
      7 C          66.1000   92.1416   13.0472 C.2     1  UNL1        0.2129
      8 O          67.0087   92.0944   14.2396 O.2     1  UNL1       -0.2850
      9 C          66.4631   92.9841   11.8604 C.ar    1  UNL1        0.0405
     10 C          67.2612   92.3925   10.7366 C.ar    1  UNL1        0.0041
     11 C          67.6243   93.2350    9.5499 C.ar    1  UNL1        0.0115
     12 C          67.1892   94.6692    9.4869 C.ar    1  UNL1        0.0577
     13 CL         67.5523   95.5116    8.3002 Cl      1  UNL1       -0.0822
     14 C          66.3911   95.2608   10.6106 C.ar    1  UNL1        0.0115
     15 C          66.0280   94.4183   11.7974 C.ar    1  UNL1        0.0041
     16 O          61.5935   89.8879   11.4681 O.3     1  UNL1       -0.4478
     17 C          61.8150   89.0012   10.2788 C.3     1  UNL1        0.2086
     18 N          62.8788   84.6688   10.8693 N.3     1  UNL1       -0.2740
     19 C          62.7308   85.2225    9.4832 C.3     1  UNL1        0.0722
     20 C          62.3761   86.6666    9.2863 C.3     1  UNL1        0.0211
     21 C          62.1696   87.5571   10.4756 C.3     1  UNL1        0.0466
     22 C          62.3177   87.0034   11.8617 C.3     1  UNL1        0.0211
     23 C          62.6723   85.5592   12.0586 C.3     1  UNL1        0.0722
     24 C          62.5680   82.4300   12.1504 C.3     1  UNL1        0.0173
     25 C          63.2334   83.2247   11.0662 C.3     1  UNL1        0.0576
     26 C          64.2535   82.5752   10.1788 C.3     1  UNL1        0.0173
@<TRIPOS>BOND
     1    24    25    1
     2    25    26    1
     3    25    18    1
     4    18    19    1
     5    19    20    1
     6    20    21    1
     7    21    17    1
     8    17    16    1
     9    16     1    1
    10     1     2   ar
    11     2     3   ar
    12     3     4   ar
    13     4     7    1
    14     7     8    2
    15     7     9    1
    16     9    10   ar
    17    10    11   ar
    18    11    12   ar
    19    12    13    1
    20    12    14   ar
    21    14    15   ar
    22     4     5   ar
    23     5     6    1
    24    21    22    1
    25    22    23    1
    26    23    18    1
    27     5     1   ar
    28    15     9   ar
@<TRIPOS>MOLECULE
*****
 26 28 0 0 0
SMALL
GASTEIGER

@<TRIPOS>ATOM
      1 C          63.7856   87.2644   13.5837 C.ar    1  UNL1        0.3008
      2 N          62.9824   86.9675   12.3522 N.ar    1  UNL1       -0.1925
      3 C          62.7271   85.4900   12.3102 C.ar    1  UNL1        0.1241
      4 C          63.3725   84.8737   13.5159 C.ar    1  UNL1        0.1222
      5 N          64.0267   85.9703   14.3030 N.ar    1  UNL1       -0.2769
      6 C          64.7882   85.8023   15.5843 C.3     1  UNL1        0.1352
      7 C          63.3650   83.4166   13.8720 C.2     1  UNL1        0.2129
      8 O          63.4736   82.9948   15.3074 O.2     1  UNL1       -0.2850
      9 C          63.2489   82.3813   12.7928 C.ar    1  UNL1        0.0405
     10 C          63.7372   82.6843   11.4072 C.ar    1  UNL1        0.0041
     11 C          63.6211   81.6490   10.3280 C.ar    1  UNL1        0.0115
     12 C          63.0167   80.3107   10.6343 C.ar    1  UNL1        0.0577
     13 CL         62.9006   79.2755    9.5551 Cl      1  UNL1       -0.0822
     14 C          62.5284   80.0078   12.0199 C.ar    1  UNL1        0.0115
     15 C          62.6445   81.0431   13.0991 C.ar    1  UNL1        0.0041
     16 O          64.2637   88.6177   14.0196 O.3     1  UNL1       -0.4478
     17 C          63.5180   89.8486   13.5969 C.3     1  UNL1        0.2086
     18 N          65.6652   93.1371   11.4003 N.3     1  UNL1       -0.2740
     19 C          64.6111   92.3316   10.7004 C.3     1  UNL1        0.0722
     20 C          63.8954   91.2354   11.4326 C.3     1  UNL1        0.0211
     21 C          64.2337   90.9448   12.8647 C.3     1  UNL1        0.0466
     22 C          65.2878   91.7503   13.5646 C.3     1  UNL1        0.0211
     23 C          66.0036   92.8465   12.8324 C.3     1  UNL1        0.0722
     24 C          67.2639   93.9037    9.5013 C.3     1  UNL1        0.0173
     25 C          66.3810   94.2333   10.6682 C.3     1  UNL1        0.0576
     26 C          66.2137   95.6591   11.1028 C.3     1  UNL1        0.0173
@<TRIPOS>BOND
     1    24    25    1
     2    25    26    1
     3    25    18    1
     4    18    19    1
     5    19    20    1
     6    20    21    1
     7    21    17    1
     8    17    16    1
     9    16     1    1
    10     1     2   ar
    11     2     3   ar
    12     3     4   ar
    13     4     7    1
    14     7     8    2
    15     7     9    1
    16     9    10   ar
    17    10    11   ar
    18    11    12   ar
    19    12    13    1
    20    12    14   ar
    21    14    15   ar
    22     4     5   ar
    23     5     6    1
    24    21    22    1
    25    22    23    1
    26    23    18    1
    27     5     1   ar
    28    15     9   ar
@<TRIPOS>MOLECULE
*****
 26 28 0 0 0
SMALL
GASTEIGER

@<TRIPOS>ATOM
      1 C          62.2863   89.6214   11.7489 C.ar    1  UNL1        0.3008
      2 N          62.6835   89.2792   13.1543 N.ar    1  UNL1       -0.1925
      3 C          63.7849   90.2111   13.5648 C.ar    1  UNL1        0.1241
      4 C          64.0684   91.1293   12.4130 C.ar    1  UNL1        0.1222
      5 N          63.1423   90.7649   11.2907 N.ar    1  UNL1       -0.2769
      6 C          63.0826   91.4275    9.9464 C.3     1  UNL1        0.1352
      7 C          65.0975   92.2203   12.3879 C.2     1  UNL1        0.2129
      8 O          65.0580   93.2638   11.3110 O.2     1  UNL1       -0.2850
      9 C          66.1660   92.2679   13.4396 C.ar    1  UNL1        0.0405
     10 C          67.5732   91.8774   13.0973 C.ar    1  UNL1        0.0041
     11 C          68.6417   91.9250   14.1490 C.ar    1  UNL1        0.0115
     12 C          68.3030   92.3632   15.5430 C.ar    1  UNL1        0.0577
     13 CL         69.3714   92.4108   16.5946 Cl      1  UNL1       -0.0822
     14 C          66.8958   92.7537   15.8853 C.ar    1  UNL1        0.0115
     15 C          65.8273   92.7061   14.8336 C.ar    1  UNL1        0.0041
     16 O          61.2204   88.9399   10.9432 O.3     1  UNL1       -0.4478
     17 C          61.6011   87.9801    9.8551 C.3     1  UNL1        0.2086
     18 N          63.1396   83.8837   10.9049 N.3     1  UNL1       -0.2740
     19 C          63.3060   84.4129    9.5113 C.3     1  UNL1        0.0722
     20 C          62.7931   85.7784    9.1614 C.3     1  UNL1        0.0211
     21 C          62.1139   86.6146   10.2051 C.3     1  UNL1        0.0466
     22 C          61.9476   86.0854   11.5987 C.3     1  UNL1        0.0211
     23 C          62.4605   84.7200   11.9486 C.3     1  UNL1        0.0722
     24 C          64.5614   82.3380   12.4345 C.3     1  UNL1        0.0173
     25 C          63.6525   82.5182   11.2549 C.3     1  UNL1        0.0576
     26 C          63.2565   81.3330   10.4252 C.3     1  UNL1        0.0173
@<TRIPOS>BOND
     1    24    25    1
     2    25    26    1
     3    25    18    1
     4    18    19    1
     5    19    20    1
     6    20    21    1
     7    21    17    1
     8    17    16    1
     9    16     1    1
    10     1     2   ar
    11     2     3   ar
    12     3     4   ar
    13     4     7    1
    14     7     8    2
    15     7     9    1
    16     9    10   ar
    17    10    11   ar
    18    11    12   ar
    19    12    13    1
    20    12    14   ar
    21    14    15   ar
    22     4     5   ar
    23     5     6    1
    24    21    22    1
    25    22    23    1
    26    23    18    1
    27     5     1   ar
    28    15     9   ar
@<TRIPOS>MOLECULE
*****
 26 28 0 0 0
SMALL
GASTEIGER

@<TRIPOS>ATOM
      1 C          62.7476   90.0052   12.5061 C.ar    1  UNL1        0.3008
      2 N          61.7837   90.2738   11.3887 N.ar    1  UNL1       -0.1925
      3 C          61.4099   88.9582   10.7726 C.ar    1  UNL1        0.1241
      4 C          62.1429   87.8765   11.5093 C.ar    1  UNL1        0.1222
      5 N          62.9696   88.5235   12.5807 N.ar    1  UNL1       -0.2769
      6 C          63.8617   87.8137   13.5554 C.3     1  UNL1        0.1352
      7 C          62.0631   86.4059   11.2246 C.2     1  UNL1        0.2129
      8 O          62.0623   85.4219   12.3567 O.2     1  UNL1       -0.2850
      9 C          61.9842   85.9194    9.8079 C.ar    1  UNL1        0.0405
     10 C          60.7654   86.2081    8.9826 C.ar    1  UNL1        0.0041
     11 C          60.6864   85.7216    7.5658 C.ar    1  UNL1        0.0115
     12 C          61.8263   84.9464    6.9744 C.ar    1  UNL1        0.0577
     13 CL         61.7474   84.4599    5.5578 Cl      1  UNL1       -0.0822
     14 C          63.0451   84.6577    7.7997 C.ar    1  UNL1        0.0115
     15 C          63.1240   85.1442    9.2165 C.ar    1  UNL1        0.0041
     16 O          63.3787   91.0370   13.3933 O.3     1  UNL1       -0.4478
     17 C          64.8537   91.2966   13.3102 C.3     1  UNL1        0.2086
     18 N          66.4303   94.4427   10.5055 N.3     1  UNL1       -0.2740
     19 C          65.7544   93.2207    9.9581 C.3     1  UNL1        0.0722
     20 C          65.2289   92.1720   10.8930 C.3     1  UNL1        0.0211
     21 C          65.3793   92.3453   12.3753 C.3     1  UNL1        0.0466
     22 C          66.0551   93.5674   12.9227 C.3     1  UNL1        0.0211
     23 C          66.5807   94.6161   11.9878 C.3     1  UNL1        0.0722
     24 C          67.1316   95.1779    8.1144 C.3     1  UNL1        0.0173
     25 C          66.9558   95.4915    9.5706 C.3     1  UNL1        0.0576
     26 C          67.3056   96.8537   10.0920 C.3     1  UNL1        0.0173
@<TRIPOS>BOND
     1    24    25    1
     2    25    26    1
     3    25    18    1
     4    18    19    1
     5    19    20    1
     6    20    21    1
     7    21    17    1
     8    17    16    1
     9    16     1    1
    10     1     2   ar
    11     2     3   ar
    12     3     4   ar
    13     4     7    1
    14     7     8    2
    15     7     9    1
    16     9    10   ar
    17    10    11   ar
    18    11    12   ar
    19    12    13    1
    20    12    14   ar
    21    14    15   ar
    22     4     5   ar
    23     5     6    1
    24    21    22    1
    25    22    23    1
    26    23    18    1
    27     5     1   ar
    28    15     9   ar
