@<TRIPOS>MOLECULE
*****
 35 39 0 0 0
SMALL
GASTEIGER

@<TRIPOS>ATOM
      1 C          62.5581   93.4989    2.9390 C.2     1  UNL1        0.0036
      2 C          61.5710   92.4091    3.2358 C.2     1  UNL1        0.0036
      3 C          60.8018   91.3746    4.0026 C.3     1  UNL1        0.1686
      4 O          60.3432   90.5201    5.1470 O.3     1  UNL1       -0.3442
      5 C          60.2503   89.9489    6.5308 C.3     1  UNL1        0.1721
      6 C          60.5345   89.7296    7.9872 C.ar    1  UNL1        0.0425
      7 C          61.1615   89.8889    9.3406 C.ar    1  UNL1        0.0158
      8 C          62.0556   90.4074   10.4276 C.ar    1  UNL1        0.0504
      9 C          61.1030   89.2912   10.9001 C.ar    1  UNL1        0.0178
     10 C          60.0495   88.4758   10.2105 C.ar    1  UNL1        0.0379
     11 C          59.7653   88.6951    8.7541 C.ar    1  UNL1        0.1370
     12 N          63.1091   91.2228   11.1172 N.pl3   1  UNL1       -0.2825
     13 C          64.4066   92.4927   11.1979 C.ar    1  UNL1        0.2207
     14 N          65.0336   92.6519   12.5512 N.ar    1  UNL1       -0.2120
     15 C          66.1193   93.6656   12.7602 C.ar    1  UNL1        0.1034
     16 C          66.5780   94.5201   11.6158 C.ar    1  UNL1        0.0404
     17 C          65.9510   94.3608   10.2625 C.ar    1  UNL1        0.0917
     18 N          64.8653   93.3471   10.0536 N.ar    1  UNL1       -0.2130
     19 C          66.4097   95.2152    9.1182 C.ar    1  UNL1        0.0470
     20 C          67.4122   96.3034    8.8713 C.ar    1  UNL1        0.0082
     21 C          67.3151   96.7047    7.4292 C.ar    1  UNL1        0.0052
     22 C          66.2183   96.0058    6.2779 C.ar    1  UNL1        0.0369
     23 S          66.5025   95.7865    7.7344 S.2     1  UNL1       -0.0873
     24 C          65.5914   95.8465    4.9246 C.3     1  UNL1        0.1754
     25 O          64.6972   95.3279    3.8375 O.3     1  UNL1       -0.3437
     26 C          63.6437   94.5126    3.1480 C.3     1  UNL1        0.1686
     27 H          63.0833   90.8782   12.0391 H       1  UNL1        0.1551
     28 O          58.7118   87.8798    8.0644 O.3     1  UNL1       -0.4742
     29 C          58.9735   86.4398    7.7357 C.3     1  UNL1        0.2226
     30 C          60.3205   86.0197    7.2266 C.3     1  UNL1        0.1200
     31 N          61.3864   85.5907    8.1910 N.3     1  UNL1       -0.2696
     32 C          61.3267   85.7170    9.6844 C.3     1  UNL1        0.0722
     33 C          62.6025   85.1645   10.2476 C.3     1  UNL1        0.0188
     34 C          63.4506   84.6967    9.1022 C.3     1  UNL1        0.0188
     35 C          62.6989   84.9602    7.8311 C.3     1  UNL1        0.0722
@<TRIPOS>BOND
     1     1     2    2
     2     2     3    1
     3     3     4    1
     4     4     5    1
     5     5     6    1
     6     6     7   ar
     7     7     8   ar
     8     8     9   ar
     9     9    10   ar
    10    10    11   ar
    11    11    28    1
    12    28    29    1
    13    29    30    1
    14    30    31    1
    15    31    32    1
    16    32    33    1
    17    33    34    1
    18    34    35    1
    19     8    12    1
    20    12    13    1
    21    13    14   ar
    22    14    15   ar
    23    15    16   ar
    24    16    17   ar
    25    17    18   ar
    26    17    19    1
    27    19    20   ar
    28    20    21   ar
    29    21    22   ar
    30    22    23   ar
    31    22    24    1
    32    24    25    1
    33    25    26    1
    34    26     1    1
    35    11     6   ar
    36    35    31    1
    37    18    13   ar
    38    23    19   ar
    39    12    27    1
@<TRIPOS>MOLECULE
*****
 35 39 0 0 0
SMALL
GASTEIGER

@<TRIPOS>ATOM
      1 C          65.9280   94.1399    9.8027 C.2     1  UNL1        0.0036
      2 C          65.1325   93.0834   10.5105 C.2     1  UNL1        0.0036
      3 C          64.1100   92.0123   10.7496 C.3     1  UNL1        0.1686
      4 O          62.9839   91.0556   10.4913 O.3     1  UNL1       -0.3442
      5 C          61.8900   90.3289    9.7666 C.3     1  UNL1        0.1721
      6 C          60.9602   89.9198    8.6629 C.ar    1  UNL1        0.0425
      7 C          60.3067   89.8775    7.3134 C.ar    1  UNL1        0.0158
      8 C          60.0083   90.2073    5.8809 C.ar    1  UNL1        0.0504
      9 C          59.1007   89.1015    6.4555 C.ar    1  UNL1        0.0178
     10 C          59.0080   88.4395    7.7984 C.ar    1  UNL1        0.0379
     11 C          59.9378   88.8487    8.9020 C.ar    1  UNL1        0.1370
     12 N          60.1010   90.8693    4.5380 N.pl3   1  UNL1       -0.2825
     13 C          60.7929   92.0404    3.3326 C.ar    1  UNL1        0.2207
     14 N          60.1394   91.9981    1.9832 N.ar    1  UNL1       -0.2120
     15 C          60.6120   92.9125    0.8921 C.ar    1  UNL1        0.1034
     16 C          61.7381   93.8691    1.1505 C.ar    1  UNL1        0.0404
     17 C          62.3916   93.9113    2.4999 C.ar    1  UNL1        0.0917
     18 N          61.9190   92.9970    3.5910 N.ar    1  UNL1       -0.2130
     19 C          63.5177   94.8680    2.7583 C.ar    1  UNL1        0.0470
     20 C          64.2846   95.9158    2.0075 C.ar    1  UNL1        0.0082
     21 C          65.3121   96.4925    2.9358 C.ar    1  UNL1        0.0052
     22 C          65.5414   96.0038    4.5867 C.ar    1  UNL1        0.0369
     23 S          64.6116   95.5947    3.4830 S.2     1  UNL1       -0.0873
     24 C          66.1949   96.0461    5.9362 C.3     1  UNL1        0.1754
     25 O          66.4933   95.7163    7.3688 O.3     1  UNL1       -0.3437
     26 C          66.4006   95.0543    8.7116 C.3     1  UNL1        0.1686
     27 H          59.3931   90.4187    4.0231 H       1  UNL1        0.1551
     28 O          59.8451   88.1866   10.2449 O.3     1  UNL1       -0.4742
     29 C          60.8970   87.2062   10.6719 C.3     1  UNL1        0.2226
     30 C          61.6340   86.4014    9.6428 C.3     1  UNL1        0.1200
     31 N          62.4633   85.2245   10.0640 N.3     1  UNL1       -0.2696
     32 C          62.5394   84.6494   11.4472 C.3     1  UNL1        0.0722
     33 C          63.4851   83.4856   11.4139 C.3     1  UNL1        0.0188
     34 C          63.9935   83.3414   10.0100 C.3     1  UNL1        0.0188
     35 C          63.3620   84.4162    9.1757 C.3     1  UNL1        0.0722
@<TRIPOS>BOND
     1     1     2    2
     2     2     3    1
     3     3     4    1
     4     4     5    1
     5     5     6    1
     6     6     7   ar
     7     7     8   ar
     8     8     9   ar
     9     9    10   ar
    10    10    11   ar
    11    11    28    1
    12    28    29    1
    13    29    30    1
    14    30    31    1
    15    31    32    1
    16    32    33    1
    17    33    34    1
    18    34    35    1
    19     8    12    1
    20    12    13    1
    21    13    14   ar
    22    14    15   ar
    23    15    16   ar
    24    16    17   ar
    25    17    18   ar
    26    17    19    1
    27    19    20   ar
    28    20    21   ar
    29    21    22   ar
    30    22    23   ar
    31    22    24    1
    32    24    25    1
    33    25    26    1
    34    26     1    1
    35    11     6   ar
    36    35    31    1
    37    18    13   ar
    38    23    19   ar
    39    12    27    1
@<TRIPOS>MOLECULE
*****
 35 39 0 0 0
SMALL
GASTEIGER

@<TRIPOS>ATOM
      1 C          60.5065   89.9655    8.2759 C.2     1  UNL1        0.0036
      2 C          61.4722   90.2310    9.3926 C.2     1  UNL1        0.0036
      3 C          62.6238   90.8237   10.1490 C.3     1  UNL1        0.1686
      4 O          63.8225   91.6722   10.4542 O.3     1  UNL1       -0.3442
      5 C          64.9237   92.6742   10.2712 C.3     1  UNL1        0.1721
      6 C          65.7945   93.7088    9.6220 C.ar    1  UNL1        0.0425
      7 C          66.3299   94.6511    8.5851 C.ar    1  UNL1        0.0158
      8 C          66.4654   95.3876    7.2855 C.ar    1  UNL1        0.0504
      9 C          67.5361   95.7779    8.3237 C.ar    1  UNL1        0.0178
     10 C          67.8170   95.3360    9.7295 C.ar    1  UNL1        0.0379
     11 C          66.9461   94.3015   10.3785 C.ar    1  UNL1        0.1370
     12 N          66.1845   95.8295    5.8797 N.pl3   1  UNL1       -0.2825
     13 C          65.2658   95.8198    4.3117 C.ar    1  UNL1        0.2207
     14 N          65.8012   96.7622    3.2748 N.ar    1  UNL1       -0.2120
     15 C          65.1380   96.8560    1.9327 C.ar    1  UNL1        0.1034
     16 C          63.9393   96.0075    1.6275 C.ar    1  UNL1        0.0404
     17 C          63.4038   95.0651    2.6644 C.ar    1  UNL1        0.0917
     18 N          64.0671   94.9713    4.0065 N.ar    1  UNL1       -0.2130
     19 C          62.2051   94.2166    2.3593 C.ar    1  UNL1        0.0470
     20 C          61.2650   93.9863    1.2134 C.ar    1  UNL1        0.0082
     21 C          60.2637   92.9523    1.6359 C.ar    1  UNL1        0.0052
     22 C          60.2332   92.1800    3.1914 C.ar    1  UNL1        0.0369
     23 S          61.1040   93.2146    2.5423 S.2     1  UNL1       -0.0873
     24 C          59.6978   91.2377    4.2284 C.3     1  UNL1        0.1754
     25 O          59.5623   90.5011    5.5281 O.3     1  UNL1       -0.3437
     26 C          59.8432   90.0593    6.9338 C.3     1  UNL1        0.1686
     27 H          66.8909   96.4951    5.7148 H       1  UNL1        0.1551
     28 O          67.2270   93.8596   11.7843 O.3     1  UNL1       -0.4742
     29 C          66.2091   94.0926   12.8612 C.3     1  UNL1        0.2226
     30 C          66.3687   93.4336   14.1992 C.3     1  UNL1        0.1200
     31 N          65.4463   92.3215   14.6022 N.3     1  UNL1       -0.2696
     32 C          64.8307   92.1338   15.9571 C.3     1  UNL1        0.0722
     33 C          63.9814   90.8982   15.9132 C.3     1  UNL1        0.0188
     34 C          64.0721   90.3222   14.5312 C.3     1  UNL1        0.0188
     35 C          64.9774   91.2019   13.7209 C.3     1  UNL1        0.0722
@<TRIPOS>BOND
     1     1     2    2
     2     2     3    1
     3     3     4    1
     4     4     5    1
     5     5     6    1
     6     6     7   ar
     7     7     8   ar
     8     8     9   ar
     9     9    10   ar
    10    10    11   ar
    11    11    28    1
    12    28    29    1
    13    29    30    1
    14    30    31    1
    15    31    32    1
    16    32    33    1
    17    33    34    1
    18    34    35    1
    19     8    12    1
    20    12    13    1
    21    13    14   ar
    22    14    15   ar
    23    15    16   ar
    24    16    17   ar
    25    17    18   ar
    26    17    19    1
    27    19    20   ar
    28    20    21   ar
    29    21    22   ar
    30    22    23   ar
    31    22    24    1
    32    24    25    1
    33    25    26    1
    34    26     1    1
    35    11     6   ar
    36    35    31    1
    37    18    13   ar
    38    23    19   ar
    39    12    27    1
@<TRIPOS>MOLECULE
*****
 35 39 0 0 0
SMALL
GASTEIGER

@<TRIPOS>ATOM
      1 C          60.2563   89.9741    6.9601 C.2     1  UNL1        0.0036
      2 C          60.0928   90.4231    5.5382 C.2     1  UNL1        0.0036
      3 C          60.3160   91.1871    4.2668 C.3     1  UNL1        0.1686
      4 O          60.8990   92.1738    3.2991 O.3     1  UNL1       -0.3442
      5 C          61.7715   93.2644    2.7519 C.3     1  UNL1        0.1721
      6 C          62.8282   94.3272    2.6912 C.ar    1  UNL1        0.0425
      7 C          63.9417   95.2341    3.1243 C.ar    1  UNL1        0.0158
      8 C          64.9777   95.8757    3.9989 C.ar    1  UNL1        0.0504
      9 C          64.9417   96.4529    2.5699 C.ar    1  UNL1        0.0178
     10 C          64.1082   96.1540    1.3590 C.ar    1  UNL1        0.0379
     11 C          63.0514   95.0912    1.4198 C.ar    1  UNL1        0.1370
     12 N          65.8113   96.1746    5.2098 N.pl3   1  UNL1       -0.2825
     13 C          66.3346   95.9485    6.9354 C.ar    1  UNL1        0.2207
     14 N          67.4481   96.8554    7.3685 N.ar    1  UNL1       -0.2120
     15 C          67.9786   96.7755    8.7692 C.ar    1  UNL1        0.1034
     16 C          67.3956   95.7887    9.7369 C.ar    1  UNL1        0.0404
     17 C          66.2821   94.8818    9.3038 C.ar    1  UNL1        0.0917
     18 N          65.7516   94.9617    7.9030 N.ar    1  UNL1       -0.2130
     19 C          65.6991   93.8951   10.2715 C.ar    1  UNL1        0.0470
     20 C          65.9010   93.4813   11.6991 C.ar    1  UNL1        0.0082
     21 C          64.9214   92.3879   12.0077 C.ar    1  UNL1        0.0052
     22 C          63.7699   91.7417   10.8794 C.ar    1  UNL1        0.0369
     23 S          64.8266   92.8045   10.8186 S.2     1  UNL1       -0.0873
     24 C          62.6564   90.8348   10.4463 C.3     1  UNL1        0.1754
     25 O          61.6203   90.1931    9.5716 O.3     1  UNL1       -0.3437
     26 C          60.7868   89.8943    8.3608 C.3     1  UNL1        0.1686
     27 H          66.4056   96.8931    4.8938 H       1  UNL1        0.1551
     28 O          62.2179   94.7923    0.2090 O.3     1  UNL1       -0.4742
     29 C          61.0558   95.6750   -0.1381 C.3     1  UNL1        0.2226
     30 C          59.7296   95.4665    0.5310 C.3     1  UNL1        0.1200
     31 N          58.6945   94.5918   -0.1121 N.3     1  UNL1       -0.2696
     32 C          57.5155   95.0624   -0.9111 C.3     1  UNL1        0.0722
     33 C          56.7491   93.8543   -1.3618 C.3     1  UNL1        0.0188
     34 C          57.4545   92.6370   -0.8413 C.3     1  UNL1        0.0188
     35 C          58.6568   93.0929   -0.0689 C.3     1  UNL1        0.0722
@<TRIPOS>BOND
     1     1     2    2
     2     2     3    1
     3     3     4    1
     4     4     5    1
     5     5     6    1
     6     6     7   ar
     7     7     8   ar
     8     8     9   ar
     9     9    10   ar
    10    10    11   ar
    11    11    28    1
    12    28    29    1
    13    29    30    1
    14    30    31    1
    15    31    32    1
    16    32    33    1
    17    33    34    1
    18    34    35    1
    19     8    12    1
    20    12    13    1
    21    13    14   ar
    22    14    15   ar
    23    15    16   ar
    24    16    17   ar
    25    17    18   ar
    26    17    19    1
    27    19    20   ar
    28    20    21   ar
    29    21    22   ar
    30    22    23   ar
    31    22    24    1
    32    24    25    1
    33    25    26    1
    34    26     1    1
    35    11     6   ar
    36    35    31    1
    37    18    13   ar
    38    23    19   ar
    39    12    27    1
@<TRIPOS>MOLECULE
*****
 35 39 0 0 0
SMALL
GASTEIGER

@<TRIPOS>ATOM
      1 C          60.1344   90.0105    6.6061 C.2     1  UNL1        0.0036
      2 C          60.0713   90.5452    5.2060 C.2     1  UNL1        0.0036
      3 C          60.3926   91.3741    3.9980 C.3     1  UNL1        0.1686
      4 O          61.0598   92.3975    3.1276 O.3     1  UNL1       -0.3442
      5 C          61.9923   93.4918    2.6998 C.3     1  UNL1        0.1721
      6 C          63.0777   94.5250    2.7663 C.ar    1  UNL1        0.0425
      7 C          64.1849   95.3726    3.3190 C.ar    1  UNL1        0.0158
      8 C          65.1806   95.9323    4.2913 C.ar    1  UNL1        0.0504
      9 C          65.2484   96.5915    2.8994 C.ar    1  UNL1        0.0178
     10 C          64.4844   96.3872    1.6247 C.ar    1  UNL1        0.0379
     11 C          63.3991   95.3540    1.5583 C.ar    1  UNL1        0.1370
     12 N          65.9446   96.1366    5.5660 N.pl3   1  UNL1       -0.2825
     13 C          66.3535   95.7963    7.3038 C.ar    1  UNL1        0.2207
     14 N          67.4608   96.6439    7.8565 N.ar    1  UNL1       -0.2120
     15 C          67.9009   96.4681    9.2797 C.ar    1  UNL1        0.1034
     16 C          67.2337   95.4447   10.1501 C.ar    1  UNL1        0.0404
     17 C          66.1264   94.5972    9.5973 C.ar    1  UNL1        0.0917
     18 N          65.6864   94.7730    8.1742 N.ar    1  UNL1       -0.2130
     19 C          65.4593   93.5738   10.4678 C.ar    1  UNL1        0.0470
     20 C          65.5613   93.0729   11.8779 C.ar    1  UNL1        0.0082
     21 C          64.5367   91.9926   12.0614 C.ar    1  UNL1        0.0052
     22 C          63.4414   91.4463   10.8290 C.ar    1  UNL1        0.0369
     23 S          64.5268   92.4796   10.8955 S.2     1  UNL1       -0.0873
     24 C          62.3342   90.5987   10.2763 C.3     1  UNL1        0.1754
     25 O          61.3384   90.0390    9.3039 O.3     1  UNL1       -0.3437
     26 C          60.5745   89.8348    8.0293 C.3     1  UNL1        0.1686
     27 H          66.5756   96.8544    5.3298 H       1  UNL1        0.1551
     28 O          62.6351   95.1497    0.2836 O.3     1  UNL1       -0.4742
     29 C          63.2342   94.3407   -0.8285 C.3     1  UNL1        0.2226
     30 C          63.8048   95.0287   -2.0331 C.3     1  UNL1        0.1200
     31 N          64.1252   94.2378   -3.2668 N.3     1  UNL1       -0.2696
     32 C          63.8467   92.7789   -3.4759 C.3     1  UNL1        0.0722
     33 C          64.3298   92.4066   -4.8463 C.3     1  UNL1        0.0188
     34 C          64.9068   93.6355   -5.4842 C.3     1  UNL1        0.0188
     35 C          64.7804   94.7673   -4.5079 C.3     1  UNL1        0.0722
@<TRIPOS>BOND
     1     1     2    2
     2     2     3    1
     3     3     4    1
     4     4     5    1
     5     5     6    1
     6     6     7   ar
     7     7     8   ar
     8     8     9   ar
     9     9    10   ar
    10    10    11   ar
    11    11    28    1
    12    28    29    1
    13    29    30    1
    14    30    31    1
    15    31    32    1
    16    32    33    1
    17    33    34    1
    18    34    35    1
    19     8    12    1
    20    12    13    1
    21    13    14   ar
    22    14    15   ar
    23    15    16   ar
    24    16    17   ar
    25    17    18   ar
    26    17    19    1
    27    19    20   ar
    28    20    21   ar
    29    21    22   ar
    30    22    23   ar
    31    22    24    1
    32    24    25    1
    33    25    26    1
    34    26     1    1
    35    11     6   ar
    36    35    31    1
    37    18    13   ar
    38    23    19   ar
    39    12    27    1
