@<TRIPOS>MOLECULE
*****
 22 25 0 0 0
SMALL
GASTEIGER

@<TRIPOS>ATOM
      1 C          58.7236   89.8279    6.1786 C.3     1  UNL1        0.0311
      2 C          59.4366   89.0471    7.2426 C.ar    1  UNL1       -0.0206
      3 C          59.3229   87.5519    7.2789 C.ar    1  UNL1       -0.0041
      4 C          60.0359   86.7711    8.3429 C.ar    1  UNL1        0.0048
      5 C          60.8627   87.4856    9.3705 C.ar    1  UNL1        0.0623
      6 C          60.9763   88.9808    9.3341 C.ar    1  UNL1        0.0771
      7 C          60.2633   89.7615    8.2702 C.ar    1  UNL1        0.0125
      8 N          61.8031   89.6953   10.3618 N.am    1  UNL1       -0.1721
      9 C          62.5161   88.9146   11.4257 C.2     1  UNL1        0.3160
     10 O          63.3428   89.6290   12.4534 O.2     1  UNL1       -0.2638
     11 C          62.4024   87.4193   11.4620 C.2     1  UNL1        0.2907
     12 N          62.9870   86.3904   12.3838 N.2     1  UNL1       -0.0256
     13 C          62.5215   85.0400   11.9258 C.2     1  UNL1        0.3765
     14 N          61.6493   85.2343   10.7210 N.2     1  UNL1       -0.0302
     15 C          61.5757   86.7048   10.4344 C.2     1  UNL1        0.2419
     16 C          62.8676   83.7259   12.5611 C.ar    1  UNL1        0.0989
     17 C          62.2491   83.3407   13.8722 C.ar    1  UNL1        0.0085
     18 C          62.5951   82.0267   14.5074 C.ar    1  UNL1        0.0003
     19 C          63.5597   81.0978   13.8315 C.ar    1  UNL1        0.0009
     20 C          64.1782   81.4830   12.5204 C.ar    1  UNL1        0.0116
     21 C          63.8322   82.7970   11.8852 C.ar    1  UNL1        0.0651
     22 CL         64.4507   83.1823   10.5740 Cl      1  UNL1       -0.0820
@<TRIPOS>BOND
     1     1     2    1
     2     2     3   ar
     3     3     4   ar
     4     4     5   ar
     5     5     6   ar
     6     6     7   ar
     7     6     8    2
     8     8     9    1
     9     9    10    2
    10     9    11    1
    11    11    12    2
    12    12    13    1
    13    13    16    1
    14    16    17   ar
    15    17    18   ar
    16    18    19   ar
    17    19    20   ar
    18    20    21   ar
    19    21    22    1
    20    13    14    2
    21    14    15    1
    22     7     2   ar
    23    15    11    1
    24    15     5    2
    25    21    16   ar
@<TRIPOS>MOLECULE
*****
 22 25 0 0 0
SMALL
GASTEIGER

@<TRIPOS>ATOM
      1 C          65.1560   92.3578   14.3588 C.3     1  UNL1        0.0311
      2 C          64.6678   91.0019   13.9426 C.ar    1  UNL1       -0.0206
      3 C          64.9884   89.7997   14.7802 C.ar    1  UNL1       -0.0041
      4 C          64.5002   88.4438   14.3640 C.ar    1  UNL1        0.0048
      5 C          63.6914   88.2902   13.1102 C.ar    1  UNL1        0.0623
      6 C          63.3709   89.4924   12.2725 C.ar    1  UNL1        0.0771
      7 C          63.8591   90.8483   12.6887 C.ar    1  UNL1        0.0125
      8 N          62.5621   89.3388   11.0185 N.am    1  UNL1       -0.1721
      9 C          62.0739   87.9830   10.6023 C.2     1  UNL1        0.3160
     10 O          61.2651   87.8293    9.3485 O.2     1  UNL1       -0.2638
     11 C          62.3945   86.7806   11.4401 C.2     1  UNL1        0.2907
     12 N          62.0525   85.3286   11.2840 N.2     1  UNL1       -0.0256
     13 C          62.6499   84.5847   12.4415 C.2     1  UNL1        0.3765
     14 N          63.3611   85.5771   13.3129 N.2     1  UNL1       -0.0302
     15 C          63.2032   86.9343   12.6940 C.2     1  UNL1        0.2419
     16 C          62.5531   83.1077   12.6848 C.ar    1  UNL1        0.0989
     17 C          61.8940   82.5944   13.9306 C.ar    1  UNL1        0.0085
     18 C          61.7972   81.1175   14.1739 C.ar    1  UNL1        0.0003
     19 C          62.3596   80.1538   13.1714 C.ar    1  UNL1        0.0009
     20 C          63.0188   80.6670   11.9256 C.ar    1  UNL1        0.0116
     21 C          63.1156   82.1440   11.6823 C.ar    1  UNL1        0.0651
     22 CL         63.7748   82.6573   10.4365 Cl      1  UNL1       -0.0820
@<TRIPOS>BOND
     1     1     2    1
     2     2     3   ar
     3     3     4   ar
     4     4     5   ar
     5     5     6   ar
     6     6     7   ar
     7     6     8    2
     8     8     9    1
     9     9    10    2
    10     9    11    1
    11    11    12    2
    12    12    13    1
    13    13    16    1
    14    16    17   ar
    15    17    18   ar
    16    18    19   ar
    17    19    20   ar
    18    20    21   ar
    19    21    22    1
    20    13    14    2
    21    14    15    1
    22     7     2   ar
    23    15    11    1
    24    15     5    2
    25    21    16   ar
@<TRIPOS>MOLECULE
*****
 22 25 0 0 0
SMALL
GASTEIGER

@<TRIPOS>ATOM
      1 C          62.7731   80.4716   12.7609 C.3     1  UNL1        0.0311
      2 C          62.9346   81.9599   12.8562 C.ar    1  UNL1       -0.0206
      3 C          63.5937   82.5672   14.0590 C.ar    1  UNL1       -0.0041
      4 C          63.7551   84.0555   14.1544 C.ar    1  UNL1        0.0048
      5 C          63.2575   84.9363   13.0470 C.ar    1  UNL1        0.0623
      6 C          62.5984   84.3290   11.8442 C.ar    1  UNL1        0.0771
      7 C          62.4370   82.8408   11.7489 C.ar    1  UNL1        0.0125
      8 N          62.1007   85.2099   10.7368 N.am    1  UNL1       -0.1721
      9 C          62.2622   86.6981   10.8321 C.2     1  UNL1        0.3160
     10 O          61.7645   87.5790    9.7247 O.2     1  UNL1       -0.2638
     11 C          62.9213   87.3055   12.0350 C.2     1  UNL1        0.2907
     12 N          63.2181   88.7283   12.4055 N.2     1  UNL1       -0.0256
     13 C          63.8991   88.7268   13.7420 C.2     1  UNL1        0.3765
     14 N          64.0233   87.3030   14.1974 N.2     1  UNL1       -0.0302
     15 C          63.4189   86.4246   13.1424 C.2     1  UNL1        0.2419
     16 C          64.3729   89.9368   14.4915 C.ar    1  UNL1        0.0989
     17 C          65.4343   90.8168   13.9009 C.ar    1  UNL1        0.0085
     18 C          65.9080   92.0267   14.6504 C.ar    1  UNL1        0.0003
     19 C          65.3203   92.3565   15.9905 C.ar    1  UNL1        0.0009
     20 C          64.2588   91.4764   16.5811 C.ar    1  UNL1        0.0116
     21 C          63.7851   90.2666   15.8316 C.ar    1  UNL1        0.0651
     22 CL         62.7237   89.3865   16.4221 Cl      1  UNL1       -0.0820
@<TRIPOS>BOND
     1     1     2    1
     2     2     3   ar
     3     3     4   ar
     4     4     5   ar
     5     5     6   ar
     6     6     7   ar
     7     6     8    2
     8     8     9    1
     9     9    10    2
    10     9    11    1
    11    11    12    2
    12    12    13    1
    13    13    16    1
    14    16    17   ar
    15    17    18   ar
    16    18    19   ar
    17    19    20   ar
    18    20    21   ar
    19    21    22    1
    20    13    14    2
    21    14    15    1
    22     7     2   ar
    23    15    11    1
    24    15     5    2
    25    21    16   ar
@<TRIPOS>MOLECULE
*****
 22 25 0 0 0
SMALL
GASTEIGER

@<TRIPOS>ATOM
      1 C          59.0278   87.1243    7.5587 C.3     1  UNL1        0.0311
      2 C          59.9690   87.5223    8.6568 C.ar    1  UNL1       -0.0206
      3 C          60.3537   88.9617    8.8300 C.ar    1  UNL1       -0.0041
      4 C          61.2948   89.3596    9.9281 C.ar    1  UNL1        0.0048
      5 C          61.8514   88.3181   10.8530 C.ar    1  UNL1        0.0623
      6 C          61.4667   86.8787   10.6798 C.ar    1  UNL1        0.0771
      7 C          60.5256   86.4808    9.5817 C.ar    1  UNL1        0.0125
      8 N          62.0233   85.8371   11.6047 N.am    1  UNL1       -0.1721
      9 C          62.9645   86.2350   12.7028 C.2     1  UNL1        0.3160
     10 O          63.5210   85.1935   13.6277 O.2     1  UNL1       -0.2638
     11 C          63.3491   87.6746   12.8760 C.2     1  UNL1        0.2907
     12 N          64.2491   88.3615   13.8599 N.2     1  UNL1       -0.0256
     13 C          64.2487   89.8277   13.5431 C.2     1  UNL1        0.3765
     14 N          63.3486   90.0468   12.3634 N.2     1  UNL1       -0.0302
     15 C          62.7925   88.7161   11.9511 C.2     1  UNL1        0.2419
     16 C          65.0142   90.8885   14.2771 C.ar    1  UNL1        0.0989
     17 C          66.1704   91.5749   13.6122 C.ar    1  UNL1        0.0085
     18 C          66.9358   92.6357   14.3462 C.ar    1  UNL1        0.0003
     19 C          66.5450   93.0101   15.7452 C.ar    1  UNL1        0.0009
     20 C          65.3889   92.3237   16.4101 C.ar    1  UNL1        0.0116
     21 C          64.6235   91.2630   15.6761 C.ar    1  UNL1        0.0651
     22 CL         63.4672   90.5766   16.3410 Cl      1  UNL1       -0.0820
@<TRIPOS>BOND
     1     1     2    1
     2     2     3   ar
     3     3     4   ar
     4     4     5   ar
     5     5     6   ar
     6     6     7   ar
     7     6     8    2
     8     8     9    1
     9     9    10    2
    10     9    11    1
    11    11    12    2
    12    12    13    1
    13    13    16    1
    14    16    17   ar
    15    17    18   ar
    16    18    19   ar
    17    19    20   ar
    18    20    21   ar
    19    21    22    1
    20    13    14    2
    21    14    15    1
    22     7     2   ar
    23    15    11    1
    24    15     5    2
    25    21    16   ar
@<TRIPOS>MOLECULE
*****
 22 25 0 0 0
SMALL
GASTEIGER

@<TRIPOS>ATOM
      1 C          67.0263   93.8629   14.5188 C.3     1  UNL1        0.0311
      2 C          66.1520   92.8136   13.8985 C.ar    1  UNL1       -0.0206
      3 C          65.5242   93.0570   12.5582 C.ar    1  UNL1       -0.0041
      4 C          64.6499   92.0077   11.9378 C.ar    1  UNL1        0.0048
      5 C          64.4036   90.7151   12.6578 C.ar    1  UNL1        0.0623
      6 C          65.0314   90.4718   13.9982 C.ar    1  UNL1        0.0771
      7 C          65.9057   91.5210   14.6185 C.ar    1  UNL1        0.0125
      8 N          64.7851   89.1791   14.7182 N.am    1  UNL1       -0.1721
      9 C          63.9108   88.1299   14.0979 C.2     1  UNL1        0.3160
     10 O          63.6645   86.8373   14.8179 O.2     1  UNL1       -0.2638
     11 C          63.2830   88.3733   12.7575 C.2     1  UNL1        0.2907
     12 N          62.3821   87.5313   11.9035 N.2     1  UNL1       -0.0256
     13 C          62.0716   88.3036   10.6556 C.2     1  UNL1        0.3765
     14 N          62.7807   89.6228   10.7384 N.2     1  UNL1       -0.0302
     15 C          63.5293   89.6659   12.0375 C.2     1  UNL1        0.2419
     16 C          61.2043   87.8383    9.5236 C.ar    1  UNL1        0.0989
     17 C          60.1574   88.7508    8.9568 C.ar    1  UNL1        0.0085
     18 C          59.2902   88.2854    7.8248 C.ar    1  UNL1        0.0003
     19 C          59.4699   86.9077    7.2597 C.ar    1  UNL1        0.0009
     20 C          60.5168   85.9952    7.8265 C.ar    1  UNL1        0.0116
     21 C          61.3840   86.4605    8.9584 C.ar    1  UNL1        0.0651
     22 CL         62.4310   85.5480    9.5253 Cl      1  UNL1       -0.0820
@<TRIPOS>BOND
     1     1     2    1
     2     2     3   ar
     3     3     4   ar
     4     4     5   ar
     5     5     6   ar
     6     6     7   ar
     7     6     8    2
     8     8     9    1
     9     9    10    2
    10     9    11    1
    11    11    12    2
    12    12    13    1
    13    13    16    1
    14    16    17   ar
    15    17    18   ar
    16    18    19   ar
    17    19    20   ar
    18    20    21   ar
    19    21    22    1
    20    13    14    2
    21    14    15    1
    22     7     2   ar
    23    15    11    1
    24    15     5    2
    25    21    16   ar
@<TRIPOS>MOLECULE
*****
 22 25 0 0 0
SMALL
GASTEIGER

@<TRIPOS>ATOM
      1 C          68.2451   93.8610   15.3365 C.3     1  UNL1        0.0311
      2 C          67.1542   93.0110   14.7556 C.ar    1  UNL1       -0.0206
      3 C          67.0678   92.8128   13.2713 C.ar    1  UNL1       -0.0041
      4 C          65.9769   91.9628   12.6904 C.ar    1  UNL1        0.0048
      5 C          64.9724   91.3111   13.5937 C.ar    1  UNL1        0.0623
      6 C          65.0588   91.5093   15.0780 C.ar    1  UNL1        0.0771
      7 C          66.1496   92.3593   15.6590 C.ar    1  UNL1        0.0125
      8 N          64.0542   90.8576   15.9815 N.am    1  UNL1       -0.1721
      9 C          62.9633   90.0076   15.4006 C.2     1  UNL1        0.3160
     10 O          61.9588   89.3559   16.3039 O.2     1  UNL1       -0.2638
     11 C          62.8770   89.8094   13.9162 C.2     1  UNL1        0.2907
     12 N          61.9201   89.0324   13.0614 N.2     1  UNL1       -0.0256
     13 C          62.3333   89.2039   11.6297 C.2     1  UNL1        0.3765
     14 N          63.5455   90.0869   11.5996 N.2     1  UNL1       -0.0302
     15 C          63.8815   90.4611   13.0128 C.2     1  UNL1        0.2419
     16 C          61.6536   88.5987   10.4372 C.ar    1  UNL1        0.0989
     17 C          62.1885   87.3359    9.8298 C.ar    1  UNL1        0.0085
     18 C          61.5088   86.7307    8.6374 C.ar    1  UNL1        0.0003
     19 C          60.2941   87.3884    8.0526 C.ar    1  UNL1        0.0009
     20 C          59.7592   88.6512    8.6601 C.ar    1  UNL1        0.0116
     21 C          60.4389   89.2563    9.8524 C.ar    1  UNL1        0.0651
     22 CL         59.9040   90.5192   10.4599 Cl      1  UNL1       -0.0820
@<TRIPOS>BOND
     1     1     2    1
     2     2     3   ar
     3     3     4   ar
     4     4     5   ar
     5     5     6   ar
     6     6     7   ar
     7     6     8    2
     8     8     9    1
     9     9    10    2
    10     9    11    1
    11    11    12    2
    12    12    13    1
    13    13    16    1
    14    16    17   ar
    15    17    18   ar
    16    18    19   ar
    17    19    20   ar
    18    20    21   ar
    19    21    22    1
    20    13    14    2
    21    14    15    1
    22     7     2   ar
    23    15    11    1
    24    15     5    2
    25    21    16   ar
@<TRIPOS>MOLECULE
*****
 22 25 0 0 0
SMALL
GASTEIGER

@<TRIPOS>ATOM
      1 C          68.6898   93.5825   16.5603 C.3     1  UNL1        0.0311
      2 C          67.7237   93.1002   15.5191 C.ar    1  UNL1       -0.0206
      3 C          66.8737   91.8936   15.7864 C.ar    1  UNL1       -0.0041
      4 C          65.9076   91.4112   14.7452 C.ar    1  UNL1        0.0048
      5 C          65.7915   92.1355   13.4368 C.ar    1  UNL1        0.0623
      6 C          66.6416   93.3421   13.1696 C.ar    1  UNL1        0.0771
      7 C          67.6077   93.8244   14.2107 C.ar    1  UNL1        0.0125
      8 N          66.5256   94.0664   11.8611 N.am    1  UNL1       -0.1721
      9 C          65.5595   93.5841   10.8200 C.2     1  UNL1        0.3160
     10 O          65.4435   94.3083    9.5116 O.2     1  UNL1       -0.2638
     11 C          64.7094   92.3774   11.0873 C.2     1  UNL1        0.2907
     12 N          63.6763   91.6739   10.2580 N.2     1  UNL1       -0.0256
     13 C          63.1539   90.5148   11.0539 C.2     1  UNL1        0.3765
     14 N          63.8640   90.5020   12.3750 N.2     1  UNL1       -0.0302
     15 C          64.8254   91.6532   12.3957 C.2     1  UNL1        0.2419
     16 C          62.1052   89.5396   10.6070 C.ar    1  UNL1        0.0989
     17 C          61.0650   89.9606    9.6117 C.ar    1  UNL1        0.0085
     18 C          60.0165   88.9855    9.1649 C.ar    1  UNL1        0.0003
     19 C          60.0082   87.5894    9.7134 C.ar    1  UNL1        0.0009
     20 C          61.0484   87.1684   10.7087 C.ar    1  UNL1        0.0116
     21 C          62.0969   88.1435   11.1555 C.ar    1  UNL1        0.0651
     22 CL         63.1372   87.7226   12.1509 Cl      1  UNL1       -0.0820
@<TRIPOS>BOND
     1     1     2    1
     2     2     3   ar
     3     3     4   ar
     4     4     5   ar
     5     5     6   ar
     6     6     7   ar
     7     6     8    2
     8     8     9    1
     9     9    10    2
    10     9    11    1
    11    11    12    2
    12    12    13    1
    13    13    16    1
    14    16    17   ar
    15    17    18   ar
    16    18    19   ar
    17    19    20   ar
    18    20    21   ar
    19    21    22    1
    20    13    14    2
    21    14    15    1
    22     7     2   ar
    23    15    11    1
    24    15     5    2
    25    21    16   ar
