@<TRIPOS>MOLECULE
*****
 30 33 0 0 0
SMALL
GASTEIGER

@<TRIPOS>ATOM
      1 O          65.3156   86.0966   13.9832 O.2     1  UNL1       -0.2698
      2 C          64.3623   86.3444   15.1146 C.2     1  UNL1        0.2524
      3 C          64.0168   87.7813   15.3715 C.ar    1  UNL1        0.0875
      4 C          64.7206   88.6943   14.4117 C.ar    1  UNL1        0.0076
      5 C          64.5118   90.1772   14.4971 C.ar    1  UNL1        0.0003
      6 C          63.5993   90.7472   15.5423 C.ar    1  UNL1        0.0031
      7 C          62.8955   89.8342   16.5021 C.ar    1  UNL1        0.0370
      8 C          63.1043   88.3513   16.4166 C.ar    1  UNL1        0.1429
      9 O          62.3119   87.6251   17.4630 O.3     1  UNL1       -0.4735
     10 C          62.2362   86.1497   17.7226 C.3     1  UNL1        0.2268
     11 C          62.9344   85.0360   17.0000 C.3     1  UNL1        0.1414
     12 N          63.8807   85.1226   15.8392 N.am    1  UNL1       -0.2651
     13 C          65.2156   91.0902   13.5373 C.ar    1  UNL1        0.0002
     14 C          66.5697   91.6377   13.8789 C.ar    1  UNL1        0.0031
     15 C          67.2735   92.5506   12.9192 C.ar    1  UNL1        0.0372
     16 C          66.6232   92.9162   11.6178 C.ar    1  UNL1        0.1468
     17 C          65.2691   92.3688   11.2762 C.ar    1  UNL1        0.0372
     18 C          64.5653   91.4558   12.2360 C.ar    1  UNL1        0.0031
     19 O          67.3270   93.8292   10.6581 O.3     1  UNL1       -0.4045
     20 C          67.8953   93.2822    9.3823 C.3     1  UNL1        0.5753
     21 F          68.4637   92.7352    8.1064 F       1  UNL1       -0.1328
     22 F          68.4894   92.1320   10.1400 F       1  UNL1       -0.1328
     23 F          67.3013   94.4324    8.6245 F       1  UNL1       -0.1328
     24 C          64.4159   83.8146   15.3369 C.3     1  UNL1        0.1597
     25 C          63.6595   83.0453   14.2946 C.ar    1  UNL1        0.1592
     26 N          62.5757   82.0929   14.7047 N.ar    1  UNL1       -0.2274
     27 C          61.8194   81.3237   13.6624 C.ar    1  UNL1        0.1019
     28 C          62.1468   81.5069   12.2101 C.ar    1  UNL1        0.0413
     29 C          63.2307   82.4595   11.8001 C.ar    1  UNL1        0.1019
     30 N          63.9870   83.2287   12.8423 N.ar    1  UNL1       -0.2274
@<TRIPOS>BOND
     1     1     2    2
     2     2     3    1
     3     3     4   ar
     4     4     5   ar
     5     5    13    1
     6    13    14   ar
     7    14    15   ar
     8    15    16   ar
     9    16    19    1
    10    19    20    1
    11    20    21    1
    12    20    22    1
    13    20    23    1
    14    16    17   ar
    15    17    18   ar
    16     5     6   ar
    17     6     7   ar
    18     7     8   ar
    19     8     9    1
    20     9    10    1
    21    10    11    1
    22    11    12    1
    23    12    24    1
    24    24    25    1
    25    25    26   ar
    26    26    27   ar
    27    27    28   ar
    28    28    29   ar
    29    29    30   ar
    30    12     2   am
    31    30    25   ar
    32     8     3   ar
    33    18    13   ar
@<TRIPOS>MOLECULE
*****
 30 33 0 0 0
SMALL
GASTEIGER

@<TRIPOS>ATOM
      1 O          63.5292   86.8742   13.5399 O.2     1  UNL1       -0.2698
      2 C          62.8073   87.2191   12.2711 C.2     1  UNL1        0.2524
      3 C          62.9747   88.6300   11.7901 C.ar    1  UNL1        0.0875
      4 C          63.8568   89.4215   12.7096 C.ar    1  UNL1        0.0076
      5 C          64.1537   90.8607   12.4092 C.ar    1  UNL1        0.0003
      6 C          63.5686   91.5085   11.1893 C.ar    1  UNL1        0.0031
      7 C          62.6865   90.7170   10.2699 C.ar    1  UNL1        0.0370
      8 C          62.3896   89.2778   10.5702 C.ar    1  UNL1        0.1429
      9 O          61.4926   88.6746    9.5302 O.3     1  UNL1       -0.4735
     10 C          60.9591   87.2748    9.4531 C.3     1  UNL1        0.2268
     11 C          61.1910   86.1323   10.3971 C.3     1  UNL1        0.1414
     12 N          62.0135   86.1075   11.6513 N.am    1  UNL1       -0.2651
     13 C          65.0358   91.6523   13.3287 C.ar    1  UNL1        0.0002
     14 C          65.1742   91.2488   14.7668 C.ar    1  UNL1        0.0031
     15 C          66.0562   92.0403   15.6862 C.ar    1  UNL1        0.0372
     16 C          66.7999   93.2354   15.1677 C.ar    1  UNL1        0.1468
     17 C          66.6615   93.6389   13.7296 C.ar    1  UNL1        0.0372
     18 C          65.7794   92.8473   12.8101 C.ar    1  UNL1        0.0031
     19 O          67.6819   94.0269   16.0872 O.3     1  UNL1       -0.4045
     20 C          69.1442   94.1696   15.7851 C.3     1  UNL1        0.5753
     21 F          70.6066   94.3123   15.4830 F       1  UNL1       -0.1328
     22 F          69.1355   95.5418   16.3909 F       1  UNL1       -0.1328
     23 F          69.1530   92.7974   15.1793 F       1  UNL1       -0.1328
     24 C          62.0465   84.7981   12.3821 C.3     1  UNL1        0.1597
     25 C          62.6553   83.5912   11.7315 C.ar    1  UNL1        0.1592
     26 N          62.2828   82.2169   12.2032 N.ar    1  UNL1       -0.2274
     27 C          62.8915   81.0102   11.5526 C.ar    1  UNL1        0.1019
     28 C          63.8727   81.1777   10.4305 C.ar    1  UNL1        0.0413
     29 C          64.2451   82.5521    9.9589 C.ar    1  UNL1        0.1019
     30 N          63.6364   83.7589   10.6094 N.ar    1  UNL1       -0.2274
@<TRIPOS>BOND
     1     1     2    2
     2     2     3    1
     3     3     4   ar
     4     4     5   ar
     5     5    13    1
     6    13    14   ar
     7    14    15   ar
     8    15    16   ar
     9    16    19    1
    10    19    20    1
    11    20    21    1
    12    20    22    1
    13    20    23    1
    14    16    17   ar
    15    17    18   ar
    16     5     6   ar
    17     6     7   ar
    18     7     8   ar
    19     8     9    1
    20     9    10    1
    21    10    11    1
    22    11    12    1
    23    12    24    1
    24    24    25    1
    25    25    26   ar
    26    26    27   ar
    27    27    28   ar
    28    28    29   ar
    29    29    30   ar
    30    12     2   am
    31    30    25   ar
    32     8     3   ar
    33    18    13   ar
@<TRIPOS>MOLECULE
*****
 30 33 0 0 0
SMALL
GASTEIGER

@<TRIPOS>ATOM
      1 O          64.0435   89.0770   14.5696 O.2     1  UNL1       -0.2698
      2 C          63.7209   89.6444   13.2190 C.2     1  UNL1        0.2524
      3 C          63.2411   88.6575   12.1963 C.ar    1  UNL1        0.0875
      4 C          63.1840   87.2685   12.7596 C.ar    1  UNL1        0.0076
      5 C          62.7284   86.1281   11.8983 C.ar    1  UNL1        0.0003
      6 C          62.3300   86.3767   10.4737 C.ar    1  UNL1        0.0031
      7 C          62.3871   87.7657    9.9104 C.ar    1  UNL1        0.0370
      8 C          62.8426   88.9061   10.7717 C.ar    1  UNL1        0.1429
      9 O          62.8256   90.2029   10.0180 O.3     1  UNL1       -0.4735
     10 C          63.2028   91.5714   10.5027 C.3     1  UNL1        0.2268
     11 C          63.6902   91.9811   11.8609 C.3     1  UNL1        0.1414
     12 N          63.9208   91.1235   13.0698 N.am    1  UNL1       -0.2651
     13 C          62.6713   84.7390   12.4616 C.ar    1  UNL1        0.0002
     14 C          62.6578   84.5320   13.9472 C.ar    1  UNL1        0.0031
     15 C          62.6007   83.1430   14.5105 C.ar    1  UNL1        0.0372
     16 C          62.5571   81.9608   13.5881 C.ar    1  UNL1        0.1468
     17 C          62.5705   82.1678   12.1025 C.ar    1  UNL1        0.0372
     18 C          62.6277   83.5569   11.5393 C.ar    1  UNL1        0.0031
     19 O          62.5000   80.5718   14.1514 O.3     1  UNL1       -0.4045
     20 C          61.2407   79.7655   14.0326 C.3     1  UNL1        0.5753
     21 F          59.9815   78.9591   13.9137 F       1  UNL1       -0.1328
     22 F          62.0274   78.6204   13.4668 F       1  UNL1       -0.1328
     23 F          60.4541   80.9105   14.5983 F       1  UNL1       -0.1328
     24 C          64.4168   91.8396   14.2908 C.3     1  UNL1        0.1597
     25 C          65.8887   92.0476   14.4923 C.ar    1  UNL1        0.1592
     26 N          66.3995   92.5757   15.8000 N.ar    1  UNL1       -0.2274
     27 C          67.8712   92.7836   16.0013 C.ar    1  UNL1        0.1019
     28 C          68.8323   92.4635   14.8950 C.ar    1  UNL1        0.0413
     29 C          68.3214   91.9353   13.5873 C.ar    1  UNL1        0.1019
     30 N          66.8496   91.7274   13.3859 N.ar    1  UNL1       -0.2274
@<TRIPOS>BOND
     1     1     2    2
     2     2     3    1
     3     3     4   ar
     4     4     5   ar
     5     5    13    1
     6    13    14   ar
     7    14    15   ar
     8    15    16   ar
     9    16    19    1
    10    19    20    1
    11    20    21    1
    12    20    22    1
    13    20    23    1
    14    16    17   ar
    15    17    18   ar
    16     5     6   ar
    17     6     7   ar
    18     7     8   ar
    19     8     9    1
    20     9    10    1
    21    10    11    1
    22    11    12    1
    23    12    24    1
    24    24    25    1
    25    25    26   ar
    26    26    27   ar
    27    27    28   ar
    28    28    29   ar
    29    29    30   ar
    30    12     2   am
    31    30    25   ar
    32     8     3   ar
    33    18    13   ar
@<TRIPOS>MOLECULE
*****
 30 33 0 0 0
SMALL
GASTEIGER

@<TRIPOS>ATOM
      1 O          63.5404   86.4893   12.8227 O.2     1  UNL1       -0.2698
      2 C          62.6734   86.9098   11.6731 C.2     1  UNL1        0.2524
      3 C          62.6644   88.3784   11.3679 C.ar    1  UNL1        0.0875
      4 C          63.5529   89.1388   12.3072 C.ar    1  UNL1        0.0076
      5 C          63.6868   90.6268   12.1736 C.ar    1  UNL1        0.0003
      6 C          62.9322   91.3544   11.1006 C.ar    1  UNL1        0.0031
      7 C          62.0437   90.5940   10.1613 C.ar    1  UNL1        0.0370
      8 C          61.9098   89.1060   10.2949 C.ar    1  UNL1        0.1429
      9 O          60.9778   88.5447    9.2623 O.3     1  UNL1       -0.4735
     10 C          60.5702   87.1172    9.0475 C.3     1  UNL1        0.2268
     11 C          60.9940   85.8984    9.8123 C.3     1  UNL1        0.1414
     12 N          61.9300   85.8061   10.9809 N.am    1  UNL1       -0.2651
     13 C          64.5753   91.3873   13.1129 C.ar    1  UNL1        0.0002
     14 C          64.5044   91.1269   14.5884 C.ar    1  UNL1        0.0031
     15 C          65.3929   91.8873   15.5278 C.ar    1  UNL1        0.0372
     16 C          66.3523   92.9082   14.9916 C.ar    1  UNL1        0.1468
     17 C          66.4232   93.1686   13.5161 C.ar    1  UNL1        0.0372
     18 C          65.5346   92.4081   12.5767 C.ar    1  UNL1        0.0031
     19 O          67.2407   93.6686   15.9309 O.3     1  UNL1       -0.4045
     20 C          68.5908   93.1240   16.2925 C.3     1  UNL1        0.5753
     21 F          69.9409   92.5795   16.6540 F       1  UNL1       -0.1328
     22 F          67.9447   91.8867   16.8416 F       1  UNL1       -0.1328
     23 F          69.2369   94.3613   15.7433 F       1  UNL1       -0.1328
     24 C          62.1519   84.4279   11.5297 C.3     1  UNL1        0.1597
     25 C          62.7404   84.2513   12.8981 C.ar    1  UNL1        0.1592
     26 N          61.9113   84.5408   14.1142 N.ar    1  UNL1       -0.2274
     27 C          62.4998   84.3642   15.4825 C.ar    1  UNL1        0.1019
     28 C          63.9174   83.8981   15.6349 C.ar    1  UNL1        0.0413
     29 C          64.7464   83.6086   14.4188 C.ar    1  UNL1        0.1019
     30 N          64.1580   83.7852   13.0504 N.ar    1  UNL1       -0.2274
@<TRIPOS>BOND
     1     1     2    2
     2     2     3    1
     3     3     4   ar
     4     4     5   ar
     5     5    13    1
     6    13    14   ar
     7    14    15   ar
     8    15    16   ar
     9    16    19    1
    10    19    20    1
    11    20    21    1
    12    20    22    1
    13    20    23    1
    14    16    17   ar
    15    17    18   ar
    16     5     6   ar
    17     6     7   ar
    18     7     8   ar
    19     8     9    1
    20     9    10    1
    21    10    11    1
    22    11    12    1
    23    12    24    1
    24    24    25    1
    25    25    26   ar
    26    26    27   ar
    27    27    28   ar
    28    28    29   ar
    29    29    30   ar
    30    12     2   am
    31    30    25   ar
    32     8     3   ar
    33    18    13   ar
@<TRIPOS>MOLECULE
*****
 30 33 0 0 0
SMALL
GASTEIGER

@<TRIPOS>ATOM
      1 O          63.2112   91.2157    3.8827 O.2     1  UNL1       -0.2698
      2 C          62.0134   91.9242    3.3230 C.2     1  UNL1        0.2524
      3 C          60.7122   91.6506    4.0173 C.ar    1  UNL1        0.0875
      4 C          60.8911   90.6959    5.1604 C.ar    1  UNL1        0.0076
      5 C          59.7092   90.2886    5.9892 C.ar    1  UNL1        0.0003
      6 C          58.3484   90.8358    5.6750 C.ar    1  UNL1        0.0031
      7 C          58.1695   91.7905    4.5320 C.ar    1  UNL1        0.0370
      8 C          59.3514   92.1978    3.7031 C.ar    1  UNL1        0.1429
      9 O          58.9558   93.1539    2.6171 O.3     1  UNL1       -0.4735
     10 C          59.8231   93.7988    1.5770 C.3     1  UNL1        0.2268
     11 C          61.3005   93.6469    1.3661 C.3     1  UNL1        0.1414
     12 N          62.2753   92.8126    2.1431 N.am    1  UNL1       -0.2651
     13 C          59.8880   89.3339    7.1323 C.ar    1  UNL1        0.0002
     14 C          60.6087   89.7746    8.3718 C.ar    1  UNL1        0.0031
     15 C          60.7876   88.8200    9.5149 C.ar    1  UNL1        0.0372
     16 C          60.2457   87.4246    9.4186 C.ar    1  UNL1        0.1468
     17 C          59.5250   86.9838    8.1791 C.ar    1  UNL1        0.0372
     18 C          59.3462   87.9385    7.0359 C.ar    1  UNL1        0.0031
     19 O          60.4246   86.4700   10.5616 O.3     1  UNL1       -0.4045
     20 C          61.6968   85.6862   10.6922 C.3     1  UNL1        0.5753
     21 F          62.9690   84.9023   10.8227 F       1  UNL1       -0.1328
     22 F          61.8652   85.7112    9.2019 F       1  UNL1       -0.1328
     23 F          61.5284   85.6611   12.1825 F       1  UNL1       -0.1328
     24 C          63.7002   92.8751    1.6789 C.3     1  UNL1        0.1597
     25 C          64.3104   94.1937    1.3060 C.ar    1  UNL1        0.1592
     26 N          64.5068   95.2516    2.3510 N.ar    1  UNL1       -0.2274
     27 C          65.1170   96.5701    1.9780 C.ar    1  UNL1        0.1019
     28 C          65.5308   96.8307    0.5599 C.ar    1  UNL1        0.0413
     29 C          65.3344   95.7727   -0.4851 C.ar    1  UNL1        0.1019
     30 N          64.7242   94.4542   -0.1121 N.ar    1  UNL1       -0.2274
@<TRIPOS>BOND
     1     1     2    2
     2     2     3    1
     3     3     4   ar
     4     4     5   ar
     5     5    13    1
     6    13    14   ar
     7    14    15   ar
     8    15    16   ar
     9    16    19    1
    10    19    20    1
    11    20    21    1
    12    20    22    1
    13    20    23    1
    14    16    17   ar
    15    17    18   ar
    16     5     6   ar
    17     6     7   ar
    18     7     8   ar
    19     8     9    1
    20     9    10    1
    21    10    11    1
    22    11    12    1
    23    12    24    1
    24    24    25    1
    25    25    26   ar
    26    26    27   ar
    27    27    28   ar
    28    28    29   ar
    29    29    30   ar
    30    12     2   am
    31    30    25   ar
    32     8     3   ar
    33    18    13   ar
@<TRIPOS>MOLECULE
*****
 30 33 0 0 0
SMALL
GASTEIGER

@<TRIPOS>ATOM
      1 O          63.4323   88.1035   11.7536 O.2     1  UNL1       -0.2698
      2 C          63.5217   88.5696   13.1765 C.2     1  UNL1        0.2524
      3 C          63.4874   87.4907   14.2181 C.ar    1  UNL1        0.0875
      4 C          63.3671   86.1314   13.5954 C.ar    1  UNL1        0.0076
      5 C          63.3160   84.9101   14.4647 C.ar    1  UNL1        0.0003
      6 C          63.3851   85.0481   15.9568 C.ar    1  UNL1        0.0031
      7 C          63.5053   86.4074   16.5795 C.ar    1  UNL1        0.0370
      8 C          63.5565   87.6287   15.7101 C.ar    1  UNL1        0.1429
      9 O          63.6769   88.8797   16.5290 O.3     1  UNL1       -0.4735
     10 C          63.7580   90.3016   16.0583 C.3     1  UNL1        0.2268
     11 C          63.7387   90.8237   14.6522 C.3     1  UNL1        0.1414
     12 N          63.6335   90.0529   13.3696 N.am    1  UNL1       -0.2651
     13 C          63.1957   83.5507   13.8421 C.ar    1  UNL1        0.0002
     14 C          64.2681   83.0506   12.9201 C.ar    1  UNL1        0.0031
     15 C          64.1479   81.6913   12.2974 C.ar    1  UNL1        0.0372
     16 C          62.9553   80.8320   12.5967 C.ar    1  UNL1        0.1468
     17 C          61.8830   81.3322   13.5186 C.ar    1  UNL1        0.0372
     18 C          62.0032   82.6915   14.1413 C.ar    1  UNL1        0.0031
     19 O          62.8351   79.4727   11.9740 O.3     1  UNL1       -0.4045
     20 C          62.8354   79.3290   10.4809 C.3     1  UNL1        0.5753
     21 F          62.8356   79.1853    8.9878 F       1  UNL1       -0.1328
     22 F          62.8231   80.8221   10.3372 F       1  UNL1       -0.1328
     23 F          62.8476   77.8360   10.6246 F       1  UNL1       -0.1328
     24 C          63.6412   90.8739   12.1144 C.3     1  UNL1        0.1597
     25 C          64.6195   92.0007   11.9611 C.ar    1  UNL1        0.1592
     26 N          64.8895   92.5803   10.6042 N.ar    1  UNL1       -0.2274
     27 C          65.8677   93.7070   10.4511 C.ar    1  UNL1        0.1019
     28 C          66.5761   94.2541   11.6548 C.ar    1  UNL1        0.0413
     29 C          66.3061   93.6745   13.0117 C.ar    1  UNL1        0.1019
     30 N          65.3278   92.5478   13.1649 N.ar    1  UNL1       -0.2274
@<TRIPOS>BOND
     1     1     2    2
     2     2     3    1
     3     3     4   ar
     4     4     5   ar
     5     5    13    1
     6    13    14   ar
     7    14    15   ar
     8    15    16   ar
     9    16    19    1
    10    19    20    1
    11    20    21    1
    12    20    22    1
    13    20    23    1
    14    16    17   ar
    15    17    18   ar
    16     5     6   ar
    17     6     7   ar
    18     7     8   ar
    19     8     9    1
    20     9    10    1
    21    10    11    1
    22    11    12    1
    23    12    24    1
    24    24    25    1
    25    25    26   ar
    26    26    27   ar
    27    27    28   ar
    28    28    29   ar
    29    29    30   ar
    30    12     2   am
    31    30    25   ar
    32     8     3   ar
    33    18    13   ar
@<TRIPOS>MOLECULE
*****
 30 33 0 0 0
SMALL
GASTEIGER

@<TRIPOS>ATOM
      1 O          46.8462   76.1798   18.4428 O.2     1  UNL1       -0.2698
      2 C          45.9392   75.8718   19.5972 C.2     1  UNL1        0.2524
      3 C          45.2637   74.5332   19.5549 C.ar    1  UNL1        0.0875
      4 C          45.6511   73.7623   18.3279 C.ar    1  UNL1        0.0076
      5 C          45.0847   72.3935   18.0922 C.ar    1  UNL1        0.0003
      6 C          44.1308   71.7957   19.0836 C.ar    1  UNL1        0.0031
      7 C          43.7434   72.5665   20.3106 C.ar    1  UNL1        0.0370
      8 C          44.3098   73.9353   20.5462 C.ar    1  UNL1        0.1429
      9 O          43.7959   74.5284   21.8246 O.3     1  UNL1       -0.4735
     10 C          44.1089   75.8658   22.4274 C.3     1  UNL1        0.2268
     11 C          45.0132   76.9405   21.9006 C.3     1  UNL1        0.1414
     12 N          45.8278   76.9432   20.6411 N.am    1  UNL1       -0.2651
     13 C          45.4721   71.6225   16.8652 C.ar    1  UNL1        0.0002
     14 C          45.1055   72.1416   15.5065 C.ar    1  UNL1        0.0031
     15 C          45.4929   71.3707   14.2794 C.ar    1  UNL1        0.0372
     16 C          46.2469   70.0807   14.4111 C.ar    1  UNL1        0.1468
     17 C          46.6135   69.5616   15.7698 C.ar    1  UNL1        0.0372
     18 C          46.2261   70.3326   16.9969 C.ar    1  UNL1        0.0031
     19 O          46.6343   69.3098   13.1841 O.3     1  UNL1       -0.4045
     20 C          45.6761   68.3240   12.5840 C.3     1  UNL1        0.5753
     21 F          44.7178   67.3383   11.9840 F       1  UNL1       -0.1328
     22 F          45.0940   69.4104   11.7290 F       1  UNL1       -0.1328
     23 F          46.2581   67.2377   13.4391 F       1  UNL1       -0.1328
     24 C          46.6379   78.1808   20.3926 C.3     1  UNL1        0.1597
     25 C          46.0142   79.3605   19.7073 C.ar    1  UNL1        0.1592
     26 N          45.6500   80.5814   20.4989 N.ar    1  UNL1       -0.2274
     27 C          45.0264   81.7610   19.8136 C.ar    1  UNL1        0.1019
     28 C          44.7669   81.7197   18.3368 C.ar    1  UNL1        0.0413
     29 C          45.1312   80.4987   17.5453 C.ar    1  UNL1        0.1019
     30 N          45.7549   79.3191   18.2305 N.ar    1  UNL1       -0.2274
@<TRIPOS>BOND
     1     1     2    2
     2     2     3    1
     3     3     4   ar
     4     4     5   ar
     5     5    13    1
     6    13    14   ar
     7    14    15   ar
     8    15    16   ar
     9    16    19    1
    10    19    20    1
    11    20    21    1
    12    20    22    1
    13    20    23    1
    14    16    17   ar
    15    17    18   ar
    16     5     6   ar
    17     6     7   ar
    18     7     8   ar
    19     8     9    1
    20     9    10    1
    21    10    11    1
    22    11    12    1
    23    12    24    1
    24    24    25    1
    25    25    26   ar
    26    26    27   ar
    27    27    28   ar
    28    28    29   ar
    29    29    30   ar
    30    12     2   am
    31    30    25   ar
    32     8     3   ar
    33    18    13   ar
