@<TRIPOS>MOLECULE
*****
 36 39 0 0 0
SMALL
GASTEIGER

@<TRIPOS>ATOM
      1 N          63.0454   90.9141   11.6563 N.am    1  UNL1       -0.2438
      2 C          63.5718   91.5521   10.4050 C.3     1  UNL1        0.1009
      3 C          64.7653   92.4583   10.4700 C.3     1  UNL1        0.0662
      4 C          65.4325   92.7265   11.7864 C.3     1  UNL1        0.1600
      5 O          64.9062   92.0885   13.0378 O.3     1  UNL1       -0.4374
      6 C          63.7126   91.1823   12.9727 C.2     1  UNL1        0.4051
      7 O          63.1863   90.5442   14.2241 O.2     1  UNL1       -0.2262
      8 C          66.2945   93.5580   10.8833 C.ar    1  UNL1        0.0138
      9 C          67.2108   92.8926    9.8996 C.ar    1  UNL1       -0.0010
     10 C          68.0729   93.7241    8.9965 C.ar    1  UNL1       -0.0002
     11 C          68.0186   95.2209    9.0771 C.ar    1  UNL1       -0.0000
     12 C          67.1023   95.8863   10.0608 C.ar    1  UNL1       -0.0002
     13 C          66.2402   95.0548   10.9639 C.ar    1  UNL1       -0.0010
     14 C          60.4769   90.5881   11.4415 C.3     1  UNL1        0.0265
     15 C          61.8519   90.0078   11.5912 C.3     1  UNL1        0.1011
     16 C          62.0335   88.5212   11.6759 C.ar    1  UNL1       -0.0042
     17 C          63.1482   87.9475   12.4995 C.ar    1  UNL1       -0.0027
     18 C          63.3297   86.4610   12.5841 C.ar    1  UNL1       -0.0002
     19 C          62.3965   85.5482   11.8453 C.ar    1  UNL1        0.0023
     20 C          61.2818   86.1219   11.0218 C.ar    1  UNL1       -0.0002
     21 C          61.1003   87.6084   10.9371 C.ar    1  UNL1       -0.0027
     22 C          62.5781   84.0615   11.9300 C.ar    1  UNL1        0.0337
     23 C          62.2134   83.3320   13.1888 C.ar    1  UNL1        0.0630
     24 C          62.3950   81.8453   13.2735 C.ar    1  UNL1        0.2612
     25 O          62.0303   81.1158   14.5323 O.2     1  UNL1       -0.2670
     26 N          62.9412   81.0884   12.0993 N.ar    1  UNL1       -0.2902
     27 C          63.1228   79.6019   12.1840 C.3     1  UNL1        0.1337
     28 C          63.3059   81.8181   10.8405 C.ar    1  UNL1        0.1083
     29 C          63.1243   83.3046   10.7558 C.ar    1  UNL1        0.1574
     30 F          63.4890   84.0343    9.4969 F       1  UNL1       -0.2026
     31 C          66.3991   93.2835   12.7892 C.3     1  UNL1        0.0714
     32 C          67.0236   92.3802   13.8108 C.3     1  UNL1        0.0922
     33 C          67.7966   91.6888   12.7270 C.3     1  UNL1        0.0294
     34 C          66.2507   93.0715   14.8946 C.3     1  UNL1        0.0294
     35 O          67.6482   91.4768   14.8324 O.3     1  UNL1       -0.3866
     36 H          68.2541   90.8606   14.3918 H       1  UNL1        0.2102
@<TRIPOS>BOND
     1    15    14    1
     2    15    16    1
     3    16    17   ar
     4    17    18   ar
     5    18    19   ar
     6    19    22    1
     7    22    23   ar
     8    23    24   ar
     9    24    25    2
    10    24    26   ar
    11    26    27    1
    12    26    28   ar
    13    28    29   ar
    14    29    30    1
    15    19    20   ar
    16    20    21   ar
    17    15     1    1
    18     1     2    1
    19     2     3    1
    20     3     4    1
    21     4    31    1
    22    31    32    1
    23    32    33    1
    24    32    34    1
    25    32    35    1
    26     4     8    1
    27     8     9   ar
    28     9    10   ar
    29    10    11   ar
    30    11    12   ar
    31    12    13   ar
    32     4     5    1
    33     5     6    1
    34     6     7    2
    35    21    16   ar
    36     6     1   am
    37    29    22   ar
    38    13     8   ar
    39    35    36    1
@<TRIPOS>MOLECULE
*****
 36 39 0 0 0
SMALL
GASTEIGER

@<TRIPOS>ATOM
      1 N          63.0547   90.9093   11.5648 N.am    1  UNL1       -0.2438
      2 C          63.6196   91.5420   10.3277 C.3     1  UNL1        0.1009
      3 C          64.7997   92.4624   10.4279 C.3     1  UNL1        0.0662
      4 C          65.4150   92.7502   11.7653 C.3     1  UNL1        0.1600
      5 O          64.8501   92.1175   13.0025 O.3     1  UNL1       -0.4374
      6 C          63.6700   91.1971   12.9023 C.2     1  UNL1        0.4051
      7 O          63.1051   90.5644   14.1394 O.2     1  UNL1       -0.2262
      8 C          66.3004   93.5834   10.8866 C.ar    1  UNL1        0.0138
      9 C          66.2324   95.0802   10.9570 C.ar    1  UNL1       -0.0010
     10 C          67.1178   95.9133   10.0783 C.ar    1  UNL1       -0.0002
     11 C          68.0710   95.2496    9.1293 C.ar    1  UNL1       -0.0000
     12 C          68.1390   93.7528    9.0588 C.ar    1  UNL1       -0.0002
     13 C          67.2536   92.9196    9.9375 C.ar    1  UNL1       -0.0010
     14 C          60.5194   90.5401   11.1340 C.3     1  UNL1        0.0265
     15 C          61.8746   89.9888   11.4646 C.3     1  UNL1        0.1011
     16 C          62.0498   88.5170   11.6950 C.ar    1  UNL1       -0.0042
     17 C          61.1190   87.5394   11.0407 C.ar    1  UNL1       -0.0027
     18 C          61.2942   86.0676   11.2711 C.ar    1  UNL1       -0.0002
     19 C          62.4001   85.5734   12.1559 C.ar    1  UNL1        0.0023
     20 C          63.3309   86.5509   12.8101 C.ar    1  UNL1       -0.0002
     21 C          63.1557   88.0227   12.5797 C.ar    1  UNL1       -0.0027
     22 C          62.5753   84.1015   12.3863 C.ar    1  UNL1        0.0337
     23 C          62.8321   83.1861   11.2261 C.ar    1  UNL1        0.0630
     24 C          63.0073   81.7143   11.4565 C.ar    1  UNL1        0.2612
     25 O          63.2641   80.7989   10.2964 O.2     1  UNL1       -0.2670
     26 N          62.9256   81.1579   12.8471 N.ar    1  UNL1       -0.2902
     27 C          63.1007   79.6861   13.0776 C.3     1  UNL1        0.1337
     28 C          62.6688   82.0734   14.0073 C.ar    1  UNL1        0.1083
     29 C          62.4936   83.5452   13.7769 C.ar    1  UNL1        0.1574
     30 F          62.2368   84.4607   14.9371 F       1  UNL1       -0.2026
     31 C          66.3377   93.3273   12.7975 C.3     1  UNL1        0.0714
     32 C          66.9285   92.4419   13.8544 C.3     1  UNL1        0.0922
     33 C          66.1196   93.1505   14.9002 C.3     1  UNL1        0.0294
     34 C          67.7373   91.7334   12.8086 C.3     1  UNL1        0.0294
     35 O          67.5192   91.5565   14.9113 O.3     1  UNL1       -0.3866
     36 H          67.1534   91.7977   15.7767 H       1  UNL1        0.2102
@<TRIPOS>BOND
     1    15    14    1
     2    15    16    1
     3    16    17   ar
     4    17    18   ar
     5    18    19   ar
     6    19    22    1
     7    22    23   ar
     8    23    24   ar
     9    24    25    2
    10    24    26   ar
    11    26    27    1
    12    26    28   ar
    13    28    29   ar
    14    29    30    1
    15    19    20   ar
    16    20    21   ar
    17    15     1    1
    18     1     2    1
    19     2     3    1
    20     3     4    1
    21     4    31    1
    22    31    32    1
    23    32    33    1
    24    32    34    1
    25    32    35    1
    26     4     8    1
    27     8     9   ar
    28     9    10   ar
    29    10    11   ar
    30    11    12   ar
    31    12    13   ar
    32     4     5    1
    33     5     6    1
    34     6     7    2
    35    21    16   ar
    36     6     1   am
    37    29    22   ar
    38    13     8   ar
    39    35    36    1
@<TRIPOS>MOLECULE
*****
 36 39 0 0 0
SMALL
GASTEIGER

@<TRIPOS>ATOM
      1 N          63.5251   90.6077   11.9404 N.am    1  UNL1       -0.2438
      2 C          64.2131   90.4416   13.2629 C.3     1  UNL1        0.1009
      3 C          65.4075   91.2848   13.5981 C.3     1  UNL1        0.0662
      4 C          65.9139   92.2942   12.6108 C.3     1  UNL1        0.1600
      5 O          65.2259   92.4603   11.2883 O.3     1  UNL1       -0.4374
      6 C          64.0315   91.6171   10.9531 C.2     1  UNL1        0.4051
      7 O          63.3434   91.7832    9.6306 O.2     1  UNL1       -0.2262
      8 C          66.8963   92.5039   13.7249 C.ar    1  UNL1        0.0138
      9 C          66.4734   93.2209   14.9727 C.ar    1  UNL1       -0.0010
     10 C          67.4558   93.4306   16.0867 C.ar    1  UNL1       -0.0002
     11 C          68.8610   92.9233   15.9528 C.ar    1  UNL1       -0.0000
     12 C          69.2839   92.2063   14.7050 C.ar    1  UNL1       -0.0002
     13 C          68.3015   91.9966   13.5909 C.ar    1  UNL1       -0.0010
     14 C          61.0826   90.4079   11.0777 C.3     1  UNL1        0.0265
     15 C          62.3307   89.7645   11.6052 C.3     1  UNL1        0.1011
     16 C          62.3844   88.2778   11.7975 C.ar    1  UNL1       -0.0042
     17 C          63.3373   87.6841   12.7922 C.ar    1  UNL1       -0.0027
     18 C          63.3910   86.1975   12.9844 C.ar    1  UNL1       -0.0002
     19 C          62.4918   85.3045   12.1819 C.ar    1  UNL1        0.0023
     20 C          61.5389   85.8982   11.1872 C.ar    1  UNL1       -0.0002
     21 C          61.4852   87.3848   10.9950 C.ar    1  UNL1       -0.0027
     22 C          62.5455   83.8178   12.3742 C.ar    1  UNL1        0.0337
     23 C          62.8405   82.9210   11.2086 C.ar    1  UNL1        0.0630
     24 C          62.8943   81.4343   11.4008 C.ar    1  UNL1        0.2612
     25 O          63.1893   80.5375   10.2352 O.2     1  UNL1       -0.2670
     26 N          62.6530   80.8445   12.7587 N.ar    1  UNL1       -0.2902
     27 C          62.7067   79.3579   12.9510 C.3     1  UNL1        0.1337
     28 C          62.3579   81.7414   13.9244 C.ar    1  UNL1        0.1083
     29 C          62.3042   83.2280   13.7321 C.ar    1  UNL1        0.1574
     30 F          62.0092   84.1249   14.8977 F       1  UNL1       -0.2026
     31 C          66.7615   93.3764   12.0104 C.3     1  UNL1        0.0714
     32 C          66.6075   93.7327   10.5616 C.3     1  UNL1        0.0922
     33 C          67.4443   92.5473   10.1810 C.3     1  UNL1        0.0294
     34 C          65.7707   94.9180   10.9420 C.3     1  UNL1        0.0294
     35 O          66.4535   94.0890    9.1127 O.3     1  UNL1       -0.3866
     36 H          66.9305   93.4431    8.5684 H       1  UNL1        0.2102
@<TRIPOS>BOND
     1    15    14    1
     2    15    16    1
     3    16    17   ar
     4    17    18   ar
     5    18    19   ar
     6    19    22    1
     7    22    23   ar
     8    23    24   ar
     9    24    25    2
    10    24    26   ar
    11    26    27    1
    12    26    28   ar
    13    28    29   ar
    14    29    30    1
    15    19    20   ar
    16    20    21   ar
    17    15     1    1
    18     1     2    1
    19     2     3    1
    20     3     4    1
    21     4    31    1
    22    31    32    1
    23    32    33    1
    24    32    34    1
    25    32    35    1
    26     4     8    1
    27     8     9   ar
    28     9    10   ar
    29    10    11   ar
    30    11    12   ar
    31    12    13   ar
    32     4     5    1
    33     5     6    1
    34     6     7    2
    35    21    16   ar
    36     6     1   am
    37    29    22   ar
    38    13     8   ar
    39    35    36    1
@<TRIPOS>MOLECULE
*****
 36 39 0 0 0
SMALL
GASTEIGER

@<TRIPOS>ATOM
      1 N          63.5064   90.6303   11.9793 N.am    1  UNL1       -0.2438
      2 C          64.2049   90.4748   13.2976 C.3     1  UNL1        0.1009
      3 C          65.4110   91.3099   13.6104 C.3     1  UNL1        0.0662
      4 C          65.9186   92.3006   12.6050 C.3     1  UNL1        0.1600
      5 O          65.2201   92.4562   11.2867 O.3     1  UNL1       -0.4374
      6 C          64.0140   91.6211   10.9739 C.2     1  UNL1        0.4051
      7 O          63.3155   91.7766    9.6556 O.2     1  UNL1       -0.2262
      8 C          66.9134   92.5149   13.7071 C.ar    1  UNL1        0.0138
      9 C          68.3125   91.9927   13.5665 C.ar    1  UNL1       -0.0010
     10 C          69.3074   92.2070   14.6685 C.ar    1  UNL1       -0.0002
     11 C          68.9030   92.9436   15.9111 C.ar    1  UNL1       -0.0000
     12 C          67.5039   93.4658   16.0517 C.ar    1  UNL1       -0.0002
     13 C          66.5091   93.2515   14.9496 C.ar    1  UNL1       -0.0010
     14 C          61.0124   90.4556   11.2728 C.3     1  UNL1        0.0265
     15 C          62.3003   89.7952   11.6665 C.3     1  UNL1        0.1011
     16 C          62.3822   88.2996   11.7472 C.ar    1  UNL1       -0.0042
     17 C          63.3144   87.6513   12.7274 C.ar    1  UNL1       -0.0027
     18 C          63.3962   86.1558   12.8081 C.ar    1  UNL1       -0.0002
     19 C          62.5459   85.3085   11.9087 C.ar    1  UNL1        0.0023
     20 C          61.6137   85.9567   10.9285 C.ar    1  UNL1       -0.0002
     21 C          61.5319   87.4523   10.8478 C.ar    1  UNL1       -0.0027
     22 C          62.6278   83.8128   11.9895 C.ar    1  UNL1        0.0337
     23 C          62.1931   83.1042   13.2380 C.ar    1  UNL1        0.0630
     24 C          62.2750   81.6086   13.3188 C.ar    1  UNL1        0.2612
     25 O          61.8403   80.9000   14.5673 O.2     1  UNL1       -0.2670
     26 N          62.7916   80.8216   12.1509 N.ar    1  UNL1       -0.2902
     27 C          62.8735   79.3261   12.2317 C.3     1  UNL1        0.1337
     28 C          63.2263   81.5303   10.9024 C.ar    1  UNL1        0.1083
     29 C          63.1444   83.0259   10.8216 C.ar    1  UNL1        0.1574
     30 F          63.5791   83.7345    9.5730 F       1  UNL1       -0.2026
     31 C          66.7717   93.3657   11.9823 C.3     1  UNL1        0.0714
     32 C          66.6073   93.7048   10.5305 C.3     1  UNL1        0.0922
     33 C          65.7565   94.8830   10.9020 C.3     1  UNL1        0.0294
     34 C          67.4581   92.5267   10.1590 C.3     1  UNL1        0.0294
     35 O          66.4429   94.0440    9.0786 O.3     1  UNL1       -0.3866
     36 H          65.8887   94.8354    8.9922 H       1  UNL1        0.2102
@<TRIPOS>BOND
     1    15    14    1
     2    15    16    1
     3    16    17   ar
     4    17    18   ar
     5    18    19   ar
     6    19    22    1
     7    22    23   ar
     8    23    24   ar
     9    24    25    2
    10    24    26   ar
    11    26    27    1
    12    26    28   ar
    13    28    29   ar
    14    29    30    1
    15    19    20   ar
    16    20    21   ar
    17    15     1    1
    18     1     2    1
    19     2     3    1
    20     3     4    1
    21     4    31    1
    22    31    32    1
    23    32    33    1
    24    32    34    1
    25    32    35    1
    26     4     8    1
    27     8     9   ar
    28     9    10   ar
    29    10    11   ar
    30    11    12   ar
    31    12    13   ar
    32     4     5    1
    33     5     6    1
    34     6     7    2
    35    21    16   ar
    36     6     1   am
    37    29    22   ar
    38    13     8   ar
    39    35    36    1
@<TRIPOS>MOLECULE
*****
 36 39 0 0 0
SMALL
GASTEIGER

@<TRIPOS>ATOM
      1 N          63.7145   88.0567   13.7932 N.am    1  UNL1       -0.2438
      2 C          64.1756   86.8205   14.5068 C.3     1  UNL1        0.1009
      3 C          63.8588   85.4670   13.9434 C.3     1  UNL1        0.0662
      4 C          63.0809   85.3495   12.6663 C.3     1  UNL1        0.1600
      5 O          62.6197   86.5857   11.9526 O.3     1  UNL1       -0.4374
      6 C          62.9365   87.9393   12.5161 C.2     1  UNL1        0.4051
      7 O          62.4754   89.1754   11.8024 O.2     1  UNL1       -0.2262
      8 C          63.2980   83.8974   12.9735 C.ar    1  UNL1        0.0138
      9 C          64.4250   83.1532   12.3209 C.ar    1  UNL1       -0.0010
     10 C          64.6422   81.7011   12.6280 C.ar    1  UNL1       -0.0002
     11 C          63.7322   80.9934   13.5878 C.ar    1  UNL1       -0.0000
     12 C          62.6052   81.7376   14.2404 C.ar    1  UNL1       -0.0002
     13 C          62.3881   83.1897   13.9333 C.ar    1  UNL1       -0.0010
     14 C          63.7648   89.7014   15.8038 C.3     1  UNL1        0.0265
     15 C          64.0314   89.4102   14.3567 C.3     1  UNL1        0.1011
     16 C          64.6147   90.4727   13.4729 C.ar    1  UNL1       -0.0042
     17 C          65.9319   91.0992   13.8226 C.ar    1  UNL1       -0.0027
     18 C          66.5152   92.1616   12.9389 C.ar    1  UNL1       -0.0002
     19 C          65.7813   92.5975   11.7055 C.ar    1  UNL1        0.0023
     20 C          64.4641   91.9710   11.3558 C.ar    1  UNL1       -0.0002
     21 C          63.8808   90.9086   12.2395 C.ar    1  UNL1       -0.0027
     22 C          66.3647   93.6600   10.8217 C.ar    1  UNL1        0.0337
     23 C          66.9494   93.2907    9.4907 C.ar    1  UNL1        0.0630
     24 C          67.5328   94.3532    8.6070 C.ar    1  UNL1        0.2612
     25 O          68.1175   93.9839    7.2760 O.2     1  UNL1       -0.2670
     26 N          67.5314   95.7849    9.0543 N.ar    1  UNL1       -0.2902
     27 C          68.1147   96.8473    8.1707 C.3     1  UNL1        0.1337
     28 C          66.9466   96.1542   10.3854 C.ar    1  UNL1        0.1083
     29 C          66.3632   95.0917   11.2691 C.ar    1  UNL1        0.1574
     30 F          65.7784   95.4610   12.6002 F       1  UNL1       -0.2026
     31 C          62.3783   84.7278   11.4959 C.3     1  UNL1        0.0714
     32 C          62.3638   85.4299   10.1705 C.3     1  UNL1        0.0922
     33 C          61.1003   86.1386   10.5597 C.3     1  UNL1        0.0294
     34 C          63.6272   84.7213    9.7812 C.3     1  UNL1        0.0294
     35 O          62.3491   86.1321    8.8451 O.3     1  UNL1       -0.3866
     36 H          61.5757   86.7155    8.7967 H       1  UNL1        0.2102
@<TRIPOS>BOND
     1    15    14    1
     2    15    16    1
     3    16    17   ar
     4    17    18   ar
     5    18    19   ar
     6    19    22    1
     7    22    23   ar
     8    23    24   ar
     9    24    25    2
    10    24    26   ar
    11    26    27    1
    12    26    28   ar
    13    28    29   ar
    14    29    30    1
    15    19    20   ar
    16    20    21   ar
    17    15     1    1
    18     1     2    1
    19     2     3    1
    20     3     4    1
    21     4    31    1
    22    31    32    1
    23    32    33    1
    24    32    34    1
    25    32    35    1
    26     4     8    1
    27     8     9   ar
    28     9    10   ar
    29    10    11   ar
    30    11    12   ar
    31    12    13   ar
    32     4     5    1
    33     5     6    1
    34     6     7    2
    35    21    16   ar
    36     6     1   am
    37    29    22   ar
    38    13     8   ar
    39    35    36    1
