@<TRIPOS>MOLECULE
*****
 32 36 0 0 0
SMALL
GASTEIGER

@<TRIPOS>ATOM
      1 C          59.5869   86.3576    7.8084 C.3     1  UNL1        0.0339
      2 C          60.2193   87.1195    8.9352 C.3     1  UNL1        0.1351
      3 C          61.1933   86.4364    9.8487 C.3     1  UNL1        0.1231
      4 N          61.8258   87.1983   10.9755 N.am    1  UNL1       -0.2724
      5 C          62.7999   86.5151   11.8891 C.2     1  UNL1        0.2506
      6 O          63.4323   87.2770   13.0159 O.2     1  UNL1       -0.2699
      7 C          61.4842   88.6432   11.1887 C.3     1  UNL1        0.1096
      8 C          60.5102   89.3263   10.2751 C.3     1  UNL1        0.1621
      9 O          59.8777   88.5644    9.1483 O.3     1  UNL1       -0.3527
     10 C          63.1414   85.0702   11.6759 C.ar    1  UNL1        0.0729
     11 C          63.2917   84.5326   10.2837 C.ar    1  UNL1        0.0061
     12 C          63.6333   83.0876   10.0705 C.ar    1  UNL1        0.0002
     13 C          63.8246   82.1803   11.2496 C.ar    1  UNL1        0.0016
     14 C          63.6744   82.7180   12.6418 C.ar    1  UNL1        0.0211
     15 C          63.3328   84.1629   12.8550 C.ar    1  UNL1        0.1072
     16 N          63.1826   84.7005   14.2472 N.ar    1  UNL1       -0.1477
     17 N          64.2821   85.2629   15.0987 N.ar    1  UNL1       -0.1447
     18 C          63.6855   85.6801   16.4102 C.ar    1  UNL1        0.1446
     19 C          62.2173   85.3757   16.3693 C.ar    1  UNL1        0.1446
     20 N          61.9065   84.7703   15.0325 N.ar    1  UNL1       -0.1447
     21 C          62.1166   89.4050   12.3154 C.3     1  UNL1        0.0488
     22 C          63.1770   90.4264   12.0282 C.ar    1  UNL1       -0.0189
     23 C          63.2816   91.0348   10.6610 C.ar    1  UNL1       -0.0041
     24 C          64.3419   92.0561   10.3738 C.ar    1  UNL1        0.0013
     25 C          65.2976   92.4691   11.4536 C.ar    1  UNL1        0.0209
     26 C          65.1931   91.8608   12.8206 C.ar    1  UNL1        0.1026
     27 C          64.1327   90.8394   13.1080 C.ar    1  UNL1        0.0167
     28 N          66.1488   92.2738   13.9005 N.ar    1  UNL1       -0.1478
     29 N          65.7955   92.5528   15.3313 N.ar    1  UNL1       -0.1447
     30 C          67.0540   92.9317   16.0542 C.ar    1  UNL1        0.1446
     31 C          68.1851   92.8870   15.0701 C.ar    1  UNL1        0.1446
     32 N          67.6257   92.4803   13.7390 N.ar    1  UNL1       -0.1447
@<TRIPOS>BOND
     1     2     1    1
     2     2     3    1
     3     3     4    1
     4     4     5   am
     5     5     6    2
     6     5    10    1
     7    10    11   ar
     8    11    12   ar
     9    12    13   ar
    10    13    14   ar
    11    14    15   ar
    12    15    16    1
    13    16    17   ar
    14    17    18   ar
    15    18    19   ar
    16    19    20   ar
    17     4     7    1
    18     7    21    1
    19    21    22    1
    20    22    23   ar
    21    23    24   ar
    22    24    25   ar
    23    25    26   ar
    24    26    28    1
    25    28    29   ar
    26    29    30   ar
    27    30    31   ar
    28    31    32   ar
    29    26    27   ar
    30     7     8    1
    31     8     9    1
    32     9     2    1
    33    15    10   ar
    34    20    16   ar
    35    27    22   ar
    36    32    28   ar
@<TRIPOS>MOLECULE
*****
 32 36 0 0 0
SMALL
GASTEIGER

@<TRIPOS>ATOM
      1 C          62.8661   86.5505   18.3488 C.3     1  UNL1        0.0339
      2 C          63.0641   87.5503   17.2482 C.3     1  UNL1        0.1351
      3 C          63.2085   87.0852   15.8295 C.3     1  UNL1        0.1231
      4 N          63.4065   88.0849   14.7289 N.am    1  UNL1       -0.2724
      5 C          63.5509   87.6197   13.3102 C.2     1  UNL1        0.2506
      6 O          63.7489   88.6195   12.2096 O.2     1  UNL1       -0.2699
      7 C          63.4603   89.5498   15.0471 C.3     1  UNL1        0.1096
      8 C          63.3159   90.0149   16.4658 C.3     1  UNL1        0.1621
      9 O          63.1179   89.0151   17.5664 O.3     1  UNL1       -0.3527
     10 C          63.4971   86.1549   12.9920 C.ar    1  UNL1        0.0729
     11 C          64.3117   85.1830   13.7933 C.ar    1  UNL1        0.0061
     12 C          64.2579   83.7180   13.4751 C.ar    1  UNL1        0.0002
     13 C          63.3896   83.2251   12.3557 C.ar    1  UNL1        0.0016
     14 C          62.5751   84.1970   11.5545 C.ar    1  UNL1        0.0211
     15 C          62.6289   85.6618   11.8726 C.ar    1  UNL1        0.1072
     16 N          61.8143   86.6337   11.0714 N.ar    1  UNL1       -0.1477
     17 N          60.5993   87.3714   11.5507 N.ar    1  UNL1       -0.1447
     18 C          60.1059   88.2321   10.4256 C.ar    1  UNL1        0.1446
     19 C          61.0159   88.0265    9.2511 C.ar    1  UNL1        0.1446
     20 N          62.0718   87.0386    9.6502 N.ar    1  UNL1       -0.1447
     21 C          63.6583   90.5495   13.9465 C.3     1  UNL1        0.0488
     22 C          64.9706   91.2628   13.8084 C.ar    1  UNL1       -0.0189
     23 C          66.0723   91.0039   14.7931 C.ar    1  UNL1       -0.0041
     24 C          67.3845   91.7172   14.6550 C.ar    1  UNL1        0.0013
     25 C          67.5952   92.6894   13.5323 C.ar    1  UNL1        0.0209
     26 C          66.4937   92.9483   12.5477 C.ar    1  UNL1        0.1026
     27 C          65.1813   92.2350   12.6857 C.ar    1  UNL1        0.0167
     28 N          66.7044   93.9205   11.4250 N.ar    1  UNL1       -0.1478
     29 N          66.1830   95.3257   11.3659 N.ar    1  UNL1       -0.1447
     30 C          66.6299   95.9318   10.0686 C.ar    1  UNL1        0.1446
     31 C          67.4276   94.9012    9.3260 C.ar    1  UNL1        0.1446
     32 N          67.4736   93.6582   10.1642 N.ar    1  UNL1       -0.1447
@<TRIPOS>BOND
     1     2     1    1
     2     2     3    1
     3     3     4    1
     4     4     5   am
     5     5     6    2
     6     5    10    1
     7    10    11   ar
     8    11    12   ar
     9    12    13   ar
    10    13    14   ar
    11    14    15   ar
    12    15    16    1
    13    16    17   ar
    14    17    18   ar
    15    18    19   ar
    16    19    20   ar
    17     4     7    1
    18     7    21    1
    19    21    22    1
    20    22    23   ar
    21    23    24   ar
    22    24    25   ar
    23    25    26   ar
    24    26    28    1
    25    28    29   ar
    26    29    30   ar
    27    30    31   ar
    28    31    32   ar
    29    26    27   ar
    30     7     8    1
    31     8     9    1
    32     9     2    1
    33    15    10   ar
    34    20    16   ar
    35    27    22   ar
    36    32    28   ar
@<TRIPOS>MOLECULE
*****
 32 36 0 0 0
SMALL
GASTEIGER

@<TRIPOS>ATOM
      1 C          64.0554   84.0669   13.8378 C.3     1  UNL1        0.0339
      2 C          64.0218   85.5665   13.8288 C.3     1  UNL1        0.1351
      3 C          63.3687   86.2952   12.6920 C.3     1  UNL1        0.1231
      4 N          63.3352   87.7948   12.6830 N.am    1  UNL1       -0.2724
      5 C          62.6820   88.5236   11.5461 C.2     1  UNL1        0.2506
      6 O          62.6485   90.0232   11.5371 O.2     1  UNL1       -0.2699
      7 C          63.9546   88.5657   13.8108 C.3     1  UNL1        0.1096
      8 C          64.6077   87.8369   14.9476 C.3     1  UNL1        0.1621
      9 O          64.6413   86.3373   14.9566 O.3     1  UNL1       -0.3527
     10 C          62.0625   87.7528   10.4183 C.ar    1  UNL1        0.0729
     11 C          62.8854   86.7676    9.6422 C.ar    1  UNL1        0.0061
     12 C          62.2658   85.9967    8.5143 C.ar    1  UNL1        0.0002
     13 C          60.8235   86.2110    8.1627 C.ar    1  UNL1        0.0016
     14 C          60.0007   87.1962    8.9388 C.ar    1  UNL1        0.0211
     15 C          60.6201   87.9671   10.0666 C.ar    1  UNL1        0.1072
     16 N          59.7973   88.9523   10.8427 N.ar    1  UNL1       -0.1477
     17 N          59.5855   90.3950   10.4908 N.ar    1  UNL1       -0.1447
     18 C          58.6991   91.0021   11.5377 C.ar    1  UNL1        0.1446
     19 C          58.3631   89.9346   12.5365 C.ar    1  UNL1        0.1446
     20 N          59.0418   88.6678   12.1069 N.ar    1  UNL1       -0.1447
     21 C          63.9211   90.0653   13.8018 C.3     1  UNL1        0.0488
     22 C          65.2018   90.8438   13.7436 C.ar    1  UNL1       -0.0189
     23 C          66.1335   90.8440   14.9193 C.ar    1  UNL1       -0.0041
     24 C          67.4143   91.6226   14.8612 C.ar    1  UNL1        0.0013
     25 C          67.7635   92.4009   13.6274 C.ar    1  UNL1        0.0209
     26 C          66.8319   92.4007   12.4517 C.ar    1  UNL1        0.1026
     27 C          65.5511   91.6222   12.5099 C.ar    1  UNL1        0.0167
     28 N          67.1812   93.1791   11.2180 N.ar    1  UNL1       -0.1478
     29 N          66.8858   94.6299   10.9777 N.ar    1  UNL1       -0.1447
     30 C          67.4091   94.9908    9.6190 C.ar    1  UNL1        0.1446
     31 C          68.0280   93.7629    9.0196 C.ar    1  UNL1        0.1446
     32 N          67.8871   92.6432   10.0078 N.ar    1  UNL1       -0.1447
@<TRIPOS>BOND
     1     2     1    1
     2     2     3    1
     3     3     4    1
     4     4     5   am
     5     5     6    2
     6     5    10    1
     7    10    11   ar
     8    11    12   ar
     9    12    13   ar
    10    13    14   ar
    11    14    15   ar
    12    15    16    1
    13    16    17   ar
    14    17    18   ar
    15    18    19   ar
    16    19    20   ar
    17     4     7    1
    18     7    21    1
    19    21    22    1
    20    22    23   ar
    21    23    24   ar
    22    24    25   ar
    23    25    26   ar
    24    26    28    1
    25    28    29   ar
    26    29    30   ar
    27    30    31   ar
    28    31    32   ar
    29    26    27   ar
    30     7     8    1
    31     8     9    1
    32     9     2    1
    33    15    10   ar
    34    20    16   ar
    35    27    22   ar
    36    32    28   ar
@<TRIPOS>MOLECULE
*****
 32 36 0 0 0
SMALL
GASTEIGER

@<TRIPOS>ATOM
      1 C          60.1004   88.7541    8.1952 C.3     1  UNL1        0.0339
      2 C          60.7973   89.0629    9.4871 C.3     1  UNL1        0.1351
      3 C          61.5426   87.9830   10.2140 C.3     1  UNL1        0.1231
      4 N          62.2394   88.2918   11.5060 N.am    1  UNL1       -0.2724
      5 C          62.9848   87.2119   12.2328 C.2     1  UNL1        0.2506
      6 O          63.6816   87.5207   13.5248 O.2     1  UNL1       -0.2699
      7 C          62.1909   89.6805   12.0710 C.3     1  UNL1        0.1096
      8 C          61.4456   90.7603   11.3441 C.3     1  UNL1        0.1621
      9 O          60.7488   90.4515   10.0522 O.3     1  UNL1       -0.3527
     10 C          63.0332   85.8233   11.6678 C.ar    1  UNL1        0.0729
     11 C          63.0049   85.6166   10.1824 C.ar    1  UNL1        0.0061
     12 C          63.0534   84.2278    9.6174 C.ar    1  UNL1        0.0002
     13 C          63.1302   83.0459   10.5378 C.ar    1  UNL1        0.0016
     14 C          63.1585   83.2527   12.0232 C.ar    1  UNL1        0.0211
     15 C          63.1100   84.6413   12.5882 C.ar    1  UNL1        0.1072
     16 N          63.1383   84.8480   14.0736 N.ar    1  UNL1       -0.1477
     17 N          61.9522   84.8139   14.9913 N.ar    1  UNL1       -0.1447
     18 C          62.4386   85.0700   16.3870 C.ar    1  UNL1        0.1446
     19 C          63.9252   85.2623   16.3319 C.ar    1  UNL1        0.1446
     20 N          64.3576   85.1251   14.9022 N.ar    1  UNL1       -0.1447
     21 C          62.8878   89.9893   13.3629 C.3     1  UNL1        0.0488
     22 C          64.1943   90.7261   13.3529 C.ar    1  UNL1       -0.0189
     23 C          65.1727   90.5334   14.4735 C.ar    1  UNL1       -0.0041
     24 C          66.4791   91.2703   14.4635 C.ar    1  UNL1        0.0013
     25 C          66.8073   92.1999   13.3329 C.ar    1  UNL1        0.0209
     26 C          65.8289   92.3926   12.2123 C.ar    1  UNL1        0.1026
     27 C          64.5224   91.6557   12.2223 C.ar    1  UNL1        0.0167
     28 N          66.1571   93.3222   11.0818 N.ar    1  UNL1       -0.1478
     29 N          67.0711   93.0225    9.9308 N.ar    1  UNL1       -0.1447
     30 C          67.1078   94.2298    9.0414 C.ar    1  UNL1        0.1446
     31 C          66.2163   95.2757    9.6426 C.ar    1  UNL1        0.1446
     32 N          65.6287   94.7147   10.9036 N.ar    1  UNL1       -0.1447
@<TRIPOS>BOND
     1     2     1    1
     2     2     3    1
     3     3     4    1
     4     4     5   am
     5     5     6    2
     6     5    10    1
     7    10    11   ar
     8    11    12   ar
     9    12    13   ar
    10    13    14   ar
    11    14    15   ar
    12    15    16    1
    13    16    17   ar
    14    17    18   ar
    15    18    19   ar
    16    19    20   ar
    17     4     7    1
    18     7    21    1
    19    21    22    1
    20    22    23   ar
    21    23    24   ar
    22    24    25   ar
    23    25    26   ar
    24    26    28    1
    25    28    29   ar
    26    29    30   ar
    27    30    31   ar
    28    31    32   ar
    29    26    27   ar
    30     7     8    1
    31     8     9    1
    32     9     2    1
    33    15    10   ar
    34    20    16   ar
    35    27    22   ar
    36    32    28   ar
