@<TRIPOS>MOLECULE
*****
 31 34 0 0 0
SMALL
GASTEIGER

@<TRIPOS>ATOM
      1 N          65.1856   90.8622   13.0698 N.am    1  UNL1       -0.2681
      2 C          64.1362   90.2194   12.2122 C.2     1  UNL1        0.3077
      3 O          63.4317   91.0234   11.1599 O.2     1  UNL1       -0.2522
      4 N          63.7912   88.7726   12.4068 N.am    1  UNL1       -0.2640
      5 C          64.4077   87.8470   13.4133 C.3     1  UNL1        0.0950
      6 C          63.7667   86.4998   13.2576 C.3     1  UNL1        0.0219
      7 C          63.7515   85.0951   13.7835 C.3     1  UNL1        0.0061
      8 C          62.7296   84.3199   13.0058 C.3     1  UNL1        0.0224
      9 C          62.1131   85.2457   11.9992 C.3     1  UNL1        0.0061
     10 C          62.7541   86.5928   12.1549 C.3     1  UNL1        0.0219
     11 C          62.7693   87.9976   11.6290 C.3     1  UNL1        0.0950
     12 H          65.6479   90.3345   13.7605 H       1  UNL1        0.1564
     13 C          66.0096   93.1285   14.0366 C.ar    1  UNL1        0.0275
     14 C          66.3546   94.5753   13.8419 C.ar    1  UNL1        0.0024
     15 C          66.2205   95.2024   12.4859 C.ar    1  UNL1        0.0001
     16 C          65.7414   94.3829   11.3246 C.ar    1  UNL1        0.0013
     17 C          65.3965   92.9361   11.5193 C.ar    1  UNL1        0.0147
     18 C          65.5306   92.3090   12.8752 C.ar    1  UNL1        0.0526
     19 O          64.9262   91.9992   16.1104 O.co2   1  UNL1       -0.5446
     20 C          66.1438   92.5014   15.3926 C.2     1  UNL1        0.0741
     21 O          67.4955   92.3765   16.0307 O.co2   1  UNL1       -0.5446
     22 C          62.3846   82.8732   13.2004 C.ar    1  UNL1       -0.0186
     23 C          61.4490   82.4666   14.3000 C.ar    1  UNL1       -0.0043
     24 C          61.1040   81.0198   14.4947 C.ar    1  UNL1       -0.0003
     25 C          61.6947   79.9797   13.5897 C.ar    1  UNL1       -0.0001
     26 C          62.6304   80.3863   12.4900 C.ar    1  UNL1        0.0035
     27 C          62.9753   81.8330   12.2954 C.ar    1  UNL1        0.0675
     28 C          63.9110   82.2396   11.1957 C.3     1  UNL1        0.4183
     29 F          64.8467   82.6462   10.0961 F       1  UNL1       -0.1659
     30 F          65.0217   82.3827   12.1937 F       1  UNL1       -0.1659
     31 F          62.8003   82.0965   10.1978 F       1  UNL1       -0.1659
@<TRIPOS>UNITY_ATOM_ATTR
19 1
charge -1
@<TRIPOS>BOND
     1    19    20   ar
     2    20    21   ar
     3    20    13    1
     4    13    14   ar
     5    14    15   ar
     6    15    16   ar
     7    16    17   ar
     8    17    18   ar
     9    18     1    1
    10     1     2   am
    11     2     3    2
    12     2     4   am
    13     4     5    1
    14     6     5    1
    15     6     7    1
    16     7     8    1
    17     8    22    1
    18    22    23   ar
    19    23    24   ar
    20    24    25   ar
    21    25    26   ar
    22    26    27   ar
    23    27    28    1
    24    28    29    1
    25    28    30    1
    26    28    31    1
    27     8     9    1
    28    10     9    1
    29    10    11    1
    30    18    13   ar
    31    11     4    1
    32    10     6    1
    33    27    22   ar
    34     1    12    1
@<TRIPOS>MOLECULE
*****
 31 34 0 0 0
SMALL
GASTEIGER

@<TRIPOS>ATOM
      1 N          61.7904   94.1480   -0.4081 N.am    1  UNL1       -0.2681
      2 C          60.3399   94.0719   -0.0337 C.2     1  UNL1        0.3077
      3 O          59.8708   94.6459    1.2704 O.2     1  UNL1       -0.2522
      4 N          59.3584   93.4218   -0.9633 N.am    1  UNL1       -0.2640
      5 C          59.6782   92.8072   -2.2937 C.3     1  UNL1        0.0950
      6 C          58.4023   92.2777   -2.8783 C.3     1  UNL1        0.0219
      7 C          57.8113   91.5706   -4.0618 C.3     1  UNL1        0.0061
      8 C          56.3378   91.4210   -3.8243 C.3     1  UNL1        0.0224
      9 C          56.0181   92.0357   -2.4938 C.3     1  UNL1        0.0061
     10 C          57.2940   92.5651   -1.9092 C.3     1  UNL1        0.0219
     11 C          57.8849   93.2722   -0.7256 C.3     1  UNL1        0.0950
     12 H          62.0982   93.7713   -1.2640 H       1  UNL1        0.1564
     13 C          63.2984   94.0416    1.7048 C.ar    1  UNL1        0.0275
     14 C          64.2799   94.6918    2.6343 C.ar    1  UNL1        0.0024
     15 C          64.7348   96.0984    2.3804 C.ar    1  UNL1        0.0001
     16 C          64.2083   96.8549    1.1971 C.ar    1  UNL1        0.0013
     17 C          63.2267   96.2048    0.2676 C.ar    1  UNL1        0.0147
     18 C          62.7719   94.7981    0.5215 C.ar    1  UNL1        0.0526
     19 O          62.1336   91.8703    0.8811 O.co2   1  UNL1       -0.5446
     20 C          62.8436   92.6350    1.9587 C.2     1  UNL1        0.0741
     21 O          63.0987   91.9931    3.2902 O.co2   1  UNL1       -0.5446
     22 C          55.3564   90.7709   -4.7538 C.ar    1  UNL1       -0.0186
     23 C          54.4807   89.6574   -4.2607 C.ar    1  UNL1       -0.0043
     24 C          53.4992   89.0073   -5.1903 C.ar    1  UNL1       -0.0003
     25 C          53.3935   89.4707   -6.6130 C.ar    1  UNL1       -0.0001
     26 C          54.2692   90.5843   -7.1061 C.ar    1  UNL1        0.0035
     27 C          55.2506   91.2344   -6.1765 C.ar    1  UNL1        0.0675
     28 C          56.1263   92.3479   -6.6696 C.3     1  UNL1        0.4183
     29 F          57.0021   93.4615   -7.1627 F       1  UNL1       -0.1659
     30 F          55.2097   93.3505   -6.0335 F       1  UNL1       -0.1659
     31 F          57.0430   91.3454   -7.3057 F       1  UNL1       -0.1659
@<TRIPOS>UNITY_ATOM_ATTR
19 1
charge -1
@<TRIPOS>BOND
     1    19    20   ar
     2    20    21   ar
     3    20    13    1
     4    13    14   ar
     5    14    15   ar
     6    15    16   ar
     7    16    17   ar
     8    17    18   ar
     9    18     1    1
    10     1     2   am
    11     2     3    2
    12     2     4   am
    13     4     5    1
    14     6     5    1
    15     6     7    1
    16     7     8    1
    17     8    22    1
    18    22    23   ar
    19    23    24   ar
    20    24    25   ar
    21    25    26   ar
    22    26    27   ar
    23    27    28    1
    24    28    29    1
    25    28    30    1
    26    28    31    1
    27     8     9    1
    28    10     9    1
    29    10    11    1
    30    18    13   ar
    31    11     4    1
    32    10     6    1
    33    27    22   ar
    34     1    12    1
@<TRIPOS>MOLECULE
*****
 31 34 0 0 0
SMALL
GASTEIGER

@<TRIPOS>ATOM
      1 N          63.7407   88.3976   14.6953 N.am    1  UNL1       -0.2681
      2 C          64.2735   89.7499   15.0657 C.2     1  UNL1        0.3077
      3 O          64.4482   90.1176   16.5094 O.2     1  UNL1       -0.2522
      4 N          64.6317   90.7347   13.9924 N.am    1  UNL1       -0.2640
      5 C          64.5117   90.5101   12.5142 C.3     1  UNL1        0.0950
      6 C          64.9786   91.7535   11.8171 C.3     1  UNL1        0.0219
      7 C          65.1929   92.3832   10.4726 C.3     1  UNL1        0.0061
      8 C          65.7339   93.7655   10.6891 C.3     1  UNL1        0.0224
      9 C          65.8539   93.9900   12.1674 C.3     1  UNL1        0.0061
     10 C          65.3870   92.7466   12.8644 C.3     1  UNL1        0.0219
     11 C          65.1726   92.1169   14.2089 C.3     1  UNL1        0.0950
     12 H          63.6261   88.1563   13.7478 H       1  UNL1        0.1564
     13 C          63.4714   85.9405   15.4956 C.ar    1  UNL1        0.0275
     14 C          63.1133   84.9558   16.5689 C.ar    1  UNL1        0.0024
     15 C          62.6662   85.4433   17.9152 C.ar    1  UNL1        0.0001
     16 C          62.5773   86.9156   18.1882 C.ar    1  UNL1        0.0013
     17 C          62.9355   87.9003   17.1149 C.ar    1  UNL1        0.0147
     18 C          63.3825   87.4128   15.7686 C.ar    1  UNL1        0.0526
     19 O          65.0732   84.5016   14.0416 O.co2   1  UNL1       -0.5446
     20 C          63.9185   85.4530   14.1493 C.2     1  UNL1        0.0741
     21 O          63.2108   85.9169   12.9108 O.co2   1  UNL1       -0.5446
     22 C          66.0921   94.7502    9.6158 C.ar    1  UNL1       -0.0186
     23 C          65.1523   95.8706    9.2820 C.ar    1  UNL1       -0.0043
     24 C          65.5104   96.8554    8.2086 C.ar    1  UNL1       -0.0003
     25 C          66.8083   96.7197    7.4692 C.ar    1  UNL1       -0.0001
     26 C          67.7482   95.5992    7.8030 C.ar    1  UNL1        0.0035
     27 C          67.3901   94.6145    8.8762 C.ar    1  UNL1        0.0675
     28 C          68.3299   93.4941    9.2101 C.3     1  UNL1        0.4183
     29 F          69.2697   92.3737    9.5439 F       1  UNL1       -0.1659
     30 F          68.3197   93.0580    7.7749 F       1  UNL1       -0.1659
     31 F          68.3400   93.9302   10.6452 F       1  UNL1       -0.1659
@<TRIPOS>UNITY_ATOM_ATTR
19 1
charge -1
@<TRIPOS>BOND
     1    19    20   ar
     2    20    21   ar
     3    20    13    1
     4    13    14   ar
     5    14    15   ar
     6    15    16   ar
     7    16    17   ar
     8    17    18   ar
     9    18     1    1
    10     1     2   am
    11     2     3    2
    12     2     4   am
    13     4     5    1
    14     6     5    1
    15     6     7    1
    16     7     8    1
    17     8    22    1
    18    22    23   ar
    19    23    24   ar
    20    24    25   ar
    21    25    26   ar
    22    26    27   ar
    23    27    28    1
    24    28    29    1
    25    28    30    1
    26    28    31    1
    27     8     9    1
    28    10     9    1
    29    10    11    1
    30    18    13   ar
    31    11     4    1
    32    10     6    1
    33    27    22   ar
    34     1    12    1
@<TRIPOS>MOLECULE
*****
 31 34 0 0 0
SMALL
GASTEIGER

@<TRIPOS>ATOM
      1 N          65.2537   90.2508   13.5486 N.am    1  UNL1       -0.2681
      2 C          64.7003   89.4691   14.7030 C.2     1  UNL1        0.3077
      3 O          64.6133   90.0983   16.0618 O.2     1  UNL1       -0.2522
      4 N          64.2341   88.0581   14.4986 N.am    1  UNL1       -0.2640
      5 C          64.2592   87.3000   13.2045 C.3     1  UNL1        0.0950
      6 C          63.7015   85.9309   13.4585 C.3     1  UNL1        0.0219
      7 C          63.3723   84.6162   12.8158 C.3     1  UNL1        0.0061
      8 C          62.7991   83.7156   13.8695 C.3     1  UNL1        0.0224
      9 C          62.7741   84.4738   15.1636 C.3     1  UNL1        0.0061
     10 C          63.3318   85.8428   14.9096 C.3     1  UNL1        0.0219
     11 C          63.6609   87.1576   15.5524 C.3     1  UNL1        0.0950
     12 H          65.3108   89.8378   12.6567 H       1  UNL1        0.1564
     13 C          65.6194   92.6545   12.6329 C.ar    1  UNL1        0.0275
     14 C          66.0857   94.0655   12.8373 C.ar    1  UNL1        0.0024
     15 C          66.6525   94.4836   14.1617 C.ar    1  UNL1        0.0001
     16 C          66.7530   93.4909   15.2816 C.ar    1  UNL1        0.0013
     17 C          66.2867   92.0800   15.0772 C.ar    1  UNL1        0.0147
     18 C          65.7200   91.6618   13.7529 C.ar    1  UNL1        0.0526
     19 O          63.8523   91.3383   11.2564 O.co2   1  UNL1       -0.5446
     20 C          65.0526   92.2363   11.3086 C.2     1  UNL1        0.0741
     21 O          65.6862   92.7162   10.0365 O.co2   1  UNL1       -0.5446
     22 C          62.3329   82.3047   13.6652 C.ar    1  UNL1       -0.0186
     23 C          61.2458   81.7410   14.5315 C.ar    1  UNL1       -0.0043
     24 C          60.7795   80.3300   14.3272 C.ar    1  UNL1       -0.0003
     25 C          61.4004   79.4827   13.2564 C.ar    1  UNL1       -0.0001
     26 C          62.4875   80.0463   12.3900 C.ar    1  UNL1        0.0035
     27 C          62.9538   81.4572   12.5944 C.ar    1  UNL1        0.0675
     28 C          64.0409   82.0208   11.7281 C.3     1  UNL1        0.4183
     29 F          65.1279   82.5844   10.8617 F       1  UNL1       -0.1659
     30 F          65.0385   81.7769   12.8213 F       1  UNL1       -0.1659
     31 F          63.0432   82.2647   10.6348 F       1  UNL1       -0.1659
@<TRIPOS>UNITY_ATOM_ATTR
19 1
charge -1
@<TRIPOS>BOND
     1    19    20   ar
     2    20    21   ar
     3    20    13    1
     4    13    14   ar
     5    14    15   ar
     6    15    16   ar
     7    16    17   ar
     8    17    18   ar
     9    18     1    1
    10     1     2   am
    11     2     3    2
    12     2     4   am
    13     4     5    1
    14     6     5    1
    15     6     7    1
    16     7     8    1
    17     8    22    1
    18    22    23   ar
    19    23    24   ar
    20    24    25   ar
    21    25    26   ar
    22    26    27   ar
    23    27    28    1
    24    28    29    1
    25    28    30    1
    26    28    31    1
    27     8     9    1
    28    10     9    1
    29    10    11    1
    30    18    13   ar
    31    11     4    1
    32    10     6    1
    33    27    22   ar
    34     1    12    1
@<TRIPOS>MOLECULE
*****
 31 34 0 0 0
SMALL
GASTEIGER

@<TRIPOS>ATOM
      1 N          63.1142   83.7000   13.8599 N.am    1  UNL1       -0.2681
      2 C          62.7270   84.8320   12.9550 C.2     1  UNL1        0.3077
      3 O          61.7651   84.5962   11.8284 O.2     1  UNL1       -0.2522
      4 N          63.3015   86.1997   13.1768 N.am    1  UNL1       -0.2640
      5 C          64.2694   86.5850   14.2560 C.3     1  UNL1        0.0950
      6 C          64.5751   88.0457   14.1045 C.3     1  UNL1        0.0219
      7 C          65.3623   89.1866   14.6778 C.3     1  UNL1        0.0061
      8 C          65.0699   90.4092   13.8593 C.3     1  UNL1        0.0224
      9 C          64.1020   90.0238   12.7800 C.3     1  UNL1        0.0061
     10 C          63.7962   88.5631   12.9316 C.3     1  UNL1        0.0219
     11 C          63.0091   87.4222   12.3583 C.3     1  UNL1        0.0950
     12 H          63.7455   83.8548   14.5993 H       1  UNL1        0.1564
     13 C          63.0364   81.4848   12.5046 C.ar    1  UNL1        0.0275
     14 C          62.4618   80.1171   12.2830 C.ar    1  UNL1        0.0024
     15 C          61.3906   79.5968   13.1949 C.ar    1  UNL1        0.0001
     16 C          60.8938   80.4442   14.3285 C.ar    1  UNL1        0.0013
     17 C          61.4684   81.8120   14.5502 C.ar    1  UNL1        0.0147
     18 C          62.5397   82.3322   13.6382 C.ar    1  UNL1        0.0526
     19 O          63.9472   81.8912   10.1056 O.co2   1  UNL1       -0.5446
     20 C          64.1077   82.0051   11.5926 C.2     1  UNL1        0.0741
     21 O          65.3393   82.6393   12.1677 O.co2   1  UNL1       -0.5446
     22 C          65.6444   91.7768   14.0810 C.ar    1  UNL1       -0.0186
     23 C          66.0788   92.1942   15.4547 C.ar    1  UNL1       -0.0043
     24 C          66.6534   93.5619   15.6765 C.ar    1  UNL1       -0.0003
     25 C          66.7935   94.5124   14.5246 C.ar    1  UNL1       -0.0001
     26 C          66.3591   94.0950   13.1508 C.ar    1  UNL1        0.0035
     27 C          65.7846   92.7273   12.9290 C.ar    1  UNL1        0.0675
     28 C          65.3501   92.3100   11.5553 C.3     1  UNL1        0.4183
     29 F          64.9157   91.8927   10.1816 F       1  UNL1       -0.1659
     30 F          66.7690   91.9662   11.2111 F       1  UNL1       -0.1659
     31 F          63.9312   92.6538   11.8996 F       1  UNL1       -0.1659
@<TRIPOS>UNITY_ATOM_ATTR
19 1
charge -1
@<TRIPOS>BOND
     1    19    20   ar
     2    20    21   ar
     3    20    13    1
     4    13    14   ar
     5    14    15   ar
     6    15    16   ar
     7    16    17   ar
     8    17    18   ar
     9    18     1    1
    10     1     2   am
    11     2     3    2
    12     2     4   am
    13     4     5    1
    14     6     5    1
    15     6     7    1
    16     7     8    1
    17     8    22    1
    18    22    23   ar
    19    23    24   ar
    20    24    25   ar
    21    25    26   ar
    22    26    27   ar
    23    27    28    1
    24    28    29    1
    25    28    30    1
    26    28    31    1
    27     8     9    1
    28    10     9    1
    29    10    11    1
    30    18    13   ar
    31    11     4    1
    32    10     6    1
    33    27    22   ar
    34     1    12    1
@<TRIPOS>MOLECULE
*****
 31 34 0 0 0
SMALL
GASTEIGER

@<TRIPOS>ATOM
      1 N          63.4972   86.4403   13.5928 N.am    1  UNL1       -0.2681
      2 C          62.9188   87.2351   12.4598 C.2     1  UNL1        0.3077
      3 O          61.7921   86.6708   11.6462 O.2     1  UNL1       -0.2522
      4 N          63.4673   88.5942   12.1403 N.am    1  UNL1       -0.2640
      5 C          64.5860   89.2855   12.8618 C.3     1  UNL1        0.0950
      6 C          64.8034   90.6191   12.2106 C.3     1  UNL1        0.0219
      7 C          65.6291   91.8706   12.2541 C.3     1  UNL1        0.0061
      8 C          65.1551   92.7772   11.1570 C.3     1  UNL1        0.0224
      9 C          64.0362   92.0859   10.4356 C.3     1  UNL1        0.0061
     10 C          63.8189   90.7522   11.0867 C.3     1  UNL1        0.0219
     11 C          62.9931   89.5007   11.0433 C.3     1  UNL1        0.0950
     12 H          64.2367   86.8107   14.1268 H       1  UNL1        0.1564
     13 C          62.4691   84.7732   15.2998 C.ar    1  UNL1        0.0275
     14 C          61.9208   83.4140   15.6192 C.ar    1  UNL1        0.0024
     15 C          61.8522   82.3630   14.5513 C.ar    1  UNL1        0.0001
     16 C          62.3319   82.6710   13.1639 C.ar    1  UNL1        0.0013
     17 C          62.8802   84.0301   12.8444 C.ar    1  UNL1        0.0147
     18 C          62.9488   85.0812   13.9124 C.ar    1  UNL1        0.0526
     19 O          61.3158   86.1582   17.1711 O.co2   1  UNL1       -0.5446
     20 C          62.5377   85.8242   16.3677 C.2     1  UNL1        0.0741
     21 O          63.8283   86.5414   16.6324 O.co2   1  UNL1       -0.5446
     22 C          65.7034   94.1362   10.8376 C.ar    1  UNL1       -0.0186
     23 C          64.9803   95.3652   11.3030 C.ar    1  UNL1       -0.0043
     24 C          65.5286   96.7244   10.9836 C.ar    1  UNL1       -0.0003
     25 C          66.8002   96.8545   10.1986 C.ar    1  UNL1       -0.0001
     26 C          67.5234   95.6255    9.7331 C.ar    1  UNL1        0.0035
     27 C          66.9751   94.2664   10.0526 C.ar    1  UNL1        0.0675
     28 C          67.6982   93.0375    9.5871 C.3     1  UNL1        0.4183
     29 F          68.4213   91.8085    9.1217 F       1  UNL1       -0.1659
     30 F          67.4576   93.4359    8.1612 F       1  UNL1       -0.1659
     31 F          67.9388   92.6390   11.0131 F       1  UNL1       -0.1659
@<TRIPOS>UNITY_ATOM_ATTR
19 1
charge -1
@<TRIPOS>BOND
     1    19    20   ar
     2    20    21   ar
     3    20    13    1
     4    13    14   ar
     5    14    15   ar
     6    15    16   ar
     7    16    17   ar
     8    17    18   ar
     9    18     1    1
    10     1     2   am
    11     2     3    2
    12     2     4   am
    13     4     5    1
    14     6     5    1
    15     6     7    1
    16     7     8    1
    17     8    22    1
    18    22    23   ar
    19    23    24   ar
    20    24    25   ar
    21    25    26   ar
    22    26    27   ar
    23    27    28    1
    24    28    29    1
    25    28    30    1
    26    28    31    1
    27     8     9    1
    28    10     9    1
    29    10    11    1
    30    18    13   ar
    31    11     4    1
    32    10     6    1
    33    27    22   ar
    34     1    12    1
@<TRIPOS>MOLECULE
*****
 31 34 0 0 0
SMALL
GASTEIGER

@<TRIPOS>ATOM
      1 N          62.5432   83.7191   13.1304 N.am    1  UNL1       -0.2681
      2 C          63.2381   84.4091   14.2666 C.2     1  UNL1        0.3077
      3 O          63.5097   83.6667   15.5414 O.2     1  UNL1       -0.2522
      4 N          63.6615   85.8414   14.1280 N.am    1  UNL1       -0.2640
      5 C          63.4589   86.7077   12.9204 C.3     1  UNL1        0.0950
      6 C          64.0341   88.0606   13.2188 C.3     1  UNL1        0.0219
      7 C          64.2643   89.4321   12.6568 C.3     1  UNL1        0.0061
      8 C          64.9646   90.2496   13.7015 C.3     1  UNL1        0.0224
      9 C          65.1672   89.3832   14.9092 C.3     1  UNL1        0.0061
     10 C          64.5921   88.0303   14.6108 C.3     1  UNL1        0.0219
     11 C          64.3618   86.6588   15.1727 C.3     1  UNL1        0.0950
     12 H          62.3650   84.2063   12.2937 H       1  UNL1        0.1564
     13 C          62.7419   81.2335   12.4010 C.ar    1  UNL1        0.0275
     14 C          62.3184   79.8012   12.5396 C.ar    1  UNL1        0.0024
     15 C          61.2728   79.4222   13.5461 C.ar    1  UNL1        0.0001
     16 C          60.6507   80.4755   14.4141 C.ar    1  UNL1        0.0013
     17 C          61.0741   81.9078   14.2755 C.ar    1  UNL1        0.0147
     18 C          62.1198   82.2868   13.2689 C.ar    1  UNL1        0.0526
     19 O          65.0065   82.3710   11.8287 O.co2   1  UNL1       -0.5446
     20 C          63.7875   81.6124   11.3944 C.2     1  UNL1        0.0741
     21 O          63.6141   81.2327    9.9537 O.co2   1  UNL1       -0.5446
     22 C          65.3880   91.6819   13.5629 C.ar    1  UNL1       -0.0186
     23 C          66.1144   92.3612   14.6858 C.ar    1  UNL1       -0.0043
     24 C          66.5378   93.7936   14.5472 C.ar    1  UNL1       -0.0003
     25 C          66.2348   94.5465   13.2858 C.ar    1  UNL1       -0.0001
     26 C          65.5084   93.8671   12.1629 C.ar    1  UNL1        0.0035
     27 C          65.0851   92.4349   12.3014 C.ar    1  UNL1        0.0675
     28 C          64.3587   91.7555   11.1786 C.3     1  UNL1        0.4183
     29 F          63.6323   91.0761   10.0557 F       1  UNL1       -0.1659
     30 F          63.0871   91.8024   11.9728 F       1  UNL1       -0.1659
     31 F          65.6303   91.7086   10.3844 F       1  UNL1       -0.1659
@<TRIPOS>UNITY_ATOM_ATTR
19 1
charge -1
@<TRIPOS>BOND
     1    19    20   ar
     2    20    21   ar
     3    20    13    1
     4    13    14   ar
     5    14    15   ar
     6    15    16   ar
     7    16    17   ar
     8    17    18   ar
     9    18     1    1
    10     1     2   am
    11     2     3    2
    12     2     4   am
    13     4     5    1
    14     6     5    1
    15     6     7    1
    16     7     8    1
    17     8    22    1
    18    22    23   ar
    19    23    24   ar
    20    24    25   ar
    21    25    26   ar
    22    26    27   ar
    23    27    28    1
    24    28    29    1
    25    28    30    1
    26    28    31    1
    27     8     9    1
    28    10     9    1
    29    10    11    1
    30    18    13   ar
    31    11     4    1
    32    10     6    1
    33    27    22   ar
    34     1    12    1
@<TRIPOS>MOLECULE
*****
 31 34 0 0 0
SMALL
GASTEIGER

@<TRIPOS>ATOM
      1 N          63.1369   86.4786   13.0432 N.am    1  UNL1       -0.2681
      2 C          63.7892   87.5273   13.8946 C.2     1  UNL1        0.3077
      3 O          64.0515   87.2580   15.3467 O.2     1  UNL1       -0.2522
      4 N          64.1791   88.8453   13.2938 N.am    1  UNL1       -0.2640
      5 C          63.9811   89.2559   11.8648 C.3     1  UNL1        0.0950
      6 C          64.5151   90.6485   11.7045 C.3     1  UNL1        0.0219
      7 C          64.7228   91.7629   10.7222 C.3     1  UNL1        0.0061
      8 C          65.3792   92.9017   11.4450 C.3     1  UNL1        0.0224
      9 C          65.5772   92.4909   12.8741 C.3     1  UNL1        0.0061
     10 C          65.0432   91.0984   13.0344 C.3     1  UNL1        0.0219
     11 C          64.8355   89.9840   14.0167 C.3     1  UNL1        0.0950
     12 H          62.9647   86.6554   12.0901 H       1  UNL1        0.1564
     13 C          62.7409   83.9228   12.7967 C.ar    1  UNL1        0.0275
     14 C          62.3509   82.6048   13.3974 C.ar    1  UNL1        0.0024
     15 C          61.9670   82.5247   14.8453 C.ar    1  UNL1        0.0001
     16 C          61.9731   83.7625   15.6924 C.ar    1  UNL1        0.0013
     17 C          62.3631   85.0805   15.0917 C.ar    1  UNL1        0.0147
     18 C          62.7469   85.1606   13.6439 C.ar    1  UNL1        0.0526
     19 O          63.9921   82.9396   10.7430 O.co2   1  UNL1       -0.5446
     20 C          63.1247   84.0029   11.3489 C.2     1  UNL1        0.0741
     21 O          62.6412   85.1462   10.5069 O.co2   1  UNL1       -0.5446
     22 C          65.7691   94.2196   10.8444 C.ar    1  UNL1       -0.0186
     23 C          64.9643   95.4489   11.1462 C.ar    1  UNL1       -0.0043
     24 C          65.3542   96.7669   10.5456 C.ar    1  UNL1       -0.0003
     25 C          66.5489   96.8556    9.6429 C.ar    1  UNL1       -0.0001
     26 C          67.3538   95.6263    9.3410 C.ar    1  UNL1        0.0035
     27 C          66.9639   94.3083    9.9417 C.ar    1  UNL1        0.0675
     28 C          67.7686   93.0791    9.6398 C.3     1  UNL1        0.4183
     29 F          68.5734   91.8498    9.3379 F       1  UNL1       -0.1659
     30 F          67.6719   93.3760    8.1727 F       1  UNL1       -0.1659
     31 F          67.8654   92.7821   11.1069 F       1  UNL1       -0.1659
@<TRIPOS>UNITY_ATOM_ATTR
19 1
charge -1
@<TRIPOS>BOND
     1    19    20   ar
     2    20    21   ar
     3    20    13    1
     4    13    14   ar
     5    14    15   ar
     6    15    16   ar
     7    16    17   ar
     8    17    18   ar
     9    18     1    1
    10     1     2   am
    11     2     3    2
    12     2     4   am
    13     4     5    1
    14     6     5    1
    15     6     7    1
    16     7     8    1
    17     8    22    1
    18    22    23   ar
    19    23    24   ar
    20    24    25   ar
    21    25    26   ar
    22    26    27   ar
    23    27    28    1
    24    28    29    1
    25    28    30    1
    26    28    31    1
    27     8     9    1
    28    10     9    1
    29    10    11    1
    30    18    13   ar
    31    11     4    1
    32    10     6    1
    33    27    22   ar
    34     1    12    1
@<TRIPOS>MOLECULE
*****
 31 34 0 0 0
SMALL
GASTEIGER

@<TRIPOS>ATOM
      1 N          63.2353   86.0568   13.3286 N.am    1  UNL1       -0.2681
      2 C          62.7145   86.8537   12.1694 C.2     1  UNL1        0.3077
      3 O          61.7212   86.2433   11.2256 O.2     1  UNL1       -0.2522
      4 N          63.1871   88.2609   11.9539 N.am    1  UNL1       -0.2640
      5 C          64.1722   89.0009   12.8095 C.3     1  UNL1        0.0950
      6 C          64.3515   90.3725   12.2293 C.3     1  UNL1        0.0219
      7 C          65.0711   91.6775   12.3995 C.3     1  UNL1        0.0061
      8 C          64.6416   92.5918   11.2906 C.3     1  UNL1        0.0224
      9 C          63.6565   91.8517   10.4349 C.3     1  UNL1        0.0061
     10 C          63.4773   90.4801   11.0151 C.3     1  UNL1        0.0219
     11 C          62.7577   89.1751   10.8449 C.3     1  UNL1        0.0950
     12 H          63.8873   86.4575   13.9480 H       1  UNL1        0.1564
     13 C          62.3615   84.1951   14.9161 C.ar    1  UNL1        0.0275
     14 C          61.8889   82.7878   15.1316 C.ar    1  UNL1        0.0024
     15 C          61.8177   81.8352   13.9751 C.ar    1  UNL1        0.0001
     16 C          62.2190   82.2897   12.6032 C.ar    1  UNL1        0.0013
     17 C          62.6915   83.6970   12.3877 C.ar    1  UNL1        0.0147
     18 C          62.7628   84.6496   13.5441 C.ar    1  UNL1        0.0526
     19 O          63.7657   85.6012   16.5897 O.co2   1  UNL1       -0.5446
     20 C          62.4327   85.1477   16.0726 C.2     1  UNL1        0.0741
     21 O          61.1709   85.6467   16.7120 O.co2   1  UNL1       -0.5446
     22 C          65.1142   93.9989   11.0751 C.ar    1  UNL1       -0.0186
     23 C          64.4680   94.8548   10.0263 C.ar    1  UNL1       -0.0043
     24 C          64.9405   96.2621    9.8108 C.ar    1  UNL1       -0.0003
     25 C          66.0593   96.8134   10.6440 C.ar    1  UNL1       -0.0001
     26 C          66.7056   95.9575   11.6928 C.ar    1  UNL1        0.0035
     27 C          66.2330   94.5503   11.9083 C.ar    1  UNL1        0.0675
     28 C          66.8792   93.6945   12.9570 C.3     1  UNL1        0.4183
     29 F          67.5254   92.8386   14.0058 F       1  UNL1       -0.1659
     30 F          67.6090   92.9360   11.8884 F       1  UNL1       -0.1659
     31 F          66.1494   94.4529   14.0257 F       1  UNL1       -0.1659
@<TRIPOS>UNITY_ATOM_ATTR
19 1
charge -1
@<TRIPOS>BOND
     1    19    20   ar
     2    20    21   ar
     3    20    13    1
     4    13    14   ar
     5    14    15   ar
     6    15    16   ar
     7    16    17   ar
     8    17    18   ar
     9    18     1    1
    10     1     2   am
    11     2     3    2
    12     2     4   am
    13     4     5    1
    14     6     5    1
    15     6     7    1
    16     7     8    1
    17     8    22    1
    18    22    23   ar
    19    23    24   ar
    20    24    25   ar
    21    25    26   ar
    22    26    27   ar
    23    27    28    1
    24    28    29    1
    25    28    30    1
    26    28    31    1
    27     8     9    1
    28    10     9    1
    29    10    11    1
    30    18    13   ar
    31    11     4    1
    32    10     6    1
    33    27    22   ar
    34     1    12    1
