@<TRIPOS>MOLECULE
*****
 29 32 0 0 0
SMALL
GASTEIGER

@<TRIPOS>ATOM
      1 C          63.3580   84.6003    8.9344 C.3     1  UNL1        0.0500
      2 C          63.2029   84.3326   10.4022 C.ar    1  UNL1        0.0378
      3 C          62.7870   85.3312   11.4413 C.ar    1  UNL1        0.0146
      4 C          62.7636   84.6351   12.7698 C.ar    1  UNL1        0.0192
      5 C          62.4286   85.1178   14.1500 C.ar    1  UNL1        0.0311
      6 C          62.4949   84.1716   15.3120 C.ar    1  UNL1        0.1402
      7 F          62.1599   84.6542   16.6922 F       1  UNL1       -0.2042
      8 C          62.8962   82.7429   15.0939 C.ar    1  UNL1        0.0311
      9 C          63.2312   82.2602   13.7138 C.ar    1  UNL1        0.0195
     10 C          63.1649   83.2064   12.5517 C.ar    1  UNL1        0.0601
     11 N          63.4364   83.0194   11.0884 N.ar    1  UNL1       -0.3253
     12 C          62.4533   86.7728   11.1952 C.ar    1  UNL1        0.0186
     13 C          63.1110   87.8450   12.0123 C.ar    1  UNL1        0.0782
     14 N          62.7772   89.2865   11.7662 N.ar    1  UNL1       -0.2960
     15 C          61.7857   89.6558   10.7030 C.ar    1  UNL1        0.2608
     16 O          61.4519   91.0974   10.4569 O.2     1  UNL1       -0.2670
     17 C          61.1279   88.5836    9.8858 C.ar    1  UNL1        0.0562
     18 C          60.1364   88.9529    8.8226 C.ar    1  UNL1        0.0047
     19 C          59.4786   87.8807    8.0056 C.ar    1  UNL1        0.0002
     20 C          59.8124   86.4392    8.2517 C.ar    1  UNL1        0.0000
     21 C          60.8039   86.0698    9.3149 C.ar    1  UNL1        0.0002
     22 C          61.4617   87.1421   10.1319 C.ar    1  UNL1        0.0061
     23 C          63.4351   90.3588   12.5833 C.3     1  UNL1        0.0886
     24 C          64.2050   91.4527   11.9048 C.3     1  UNL1        0.0246
     25 C          63.3229   90.3370   14.0790 C.3     1  UNL1        0.0246
     26 C          63.8661   81.7433   10.4274 C.3     1  UNL1        0.1474
     27 C          63.0637   80.4909   10.6217 C.2     1  UNL1        0.0732
     28 O          62.6758   80.0555   12.0037 O.co2   1  UNL1       -0.5472
     29 O          62.6492   79.6739    9.4340 O.co2   1  UNL1       -0.5472
@<TRIPOS>UNITY_ATOM_ATTR
28 1
charge -1
@<TRIPOS>BOND
     1     1     2    1
     2     2     3   ar
     3     3    12    1
     4    12    13   ar
     5    13    14   ar
     6    14    23    1
     7    23    24    1
     8    23    25    1
     9    14    15   ar
    10    15    16    2
    11    15    17   ar
    12    17    18   ar
    13    18    19   ar
    14    19    20   ar
    15    20    21   ar
    16    21    22   ar
    17     3     4   ar
    18     4     5   ar
    19     5     6   ar
    20     6     7    1
    21     6     8   ar
    22     8     9   ar
    23     9    10   ar
    24    10    11   ar
    25    11    26    1
    26    26    27    1
    27    27    28   ar
    28    27    29   ar
    29    11     2   ar
    30    22    12   ar
    31    10     4   ar
    32    22    17   ar
@<TRIPOS>MOLECULE
*****
 29 32 0 0 0
SMALL
GASTEIGER

@<TRIPOS>ATOM
      1 C          61.4447   90.3232   10.0008 C.3     1  UNL1        0.0500
      2 C          61.8704   89.0794   10.7230 C.ar    1  UNL1        0.0378
      3 C          62.9223   88.9951   11.7890 C.ar    1  UNL1        0.0146
      4 C          63.0209   87.5650   12.2308 C.ar    1  UNL1        0.0192
      5 C          63.8850   86.8876   13.2527 C.ar    1  UNL1        0.0311
      6 C          63.7583   85.4106   13.4816 C.ar    1  UNL1        0.1402
      7 F          64.6223   84.7331   14.5035 F       1  UNL1       -0.2042
      8 C          62.7674   84.6110   12.6886 C.ar    1  UNL1        0.0311
      9 C          61.9033   85.2885   11.6666 C.ar    1  UNL1        0.0195
     10 C          62.0301   86.7655   11.4377 C.ar    1  UNL1        0.0601
     11 N          61.3190   87.7014   10.5058 N.ar    1  UNL1       -0.3253
     12 C          63.7331   90.1399   12.3201 C.ar    1  UNL1        0.0186
     13 C          64.4921   91.0234   11.3751 C.ar    1  UNL1        0.0782
     14 N          65.3029   92.1682   11.9061 N.ar    1  UNL1       -0.2960
     15 C          65.3547   92.4295   13.3823 C.ar    1  UNL1        0.2608
     16 O          66.1655   93.5742   13.9134 O.2     1  UNL1       -0.2670
     17 C          64.5957   91.5459   14.3274 C.ar    1  UNL1        0.0562
     18 C          64.6475   91.8071   15.8036 C.ar    1  UNL1        0.0047
     19 C          63.8885   90.9235   16.7486 C.ar    1  UNL1        0.0002
     20 C          63.0777   89.7788   16.2175 C.ar    1  UNL1        0.0000
     21 C          63.0258   89.5175   14.7414 C.ar    1  UNL1        0.0002
     22 C          63.7849   90.4011   13.7963 C.ar    1  UNL1        0.0061
     23 C          66.0619   93.0518   10.9610 C.3     1  UNL1        0.0886
     24 C          65.5851   94.4486   10.6935 C.3     1  UNL1        0.0246
     25 C          67.2978   92.5385   10.2834 C.3     1  UNL1        0.0246
     26 C          60.2451   87.3254    9.5284 C.3     1  UNL1        0.1474
     27 C          60.5624   86.4156    8.3788 C.2     1  UNL1        0.0732
     28 O          61.9580   85.8973    8.1955 O.co2   1  UNL1       -0.5472
     29 O          59.4840   86.0240    7.4125 O.co2   1  UNL1       -0.5472
@<TRIPOS>UNITY_ATOM_ATTR
28 1
charge -1
@<TRIPOS>BOND
     1     1     2    1
     2     2     3   ar
     3     3    12    1
     4    12    13   ar
     5    13    14   ar
     6    14    23    1
     7    23    24    1
     8    23    25    1
     9    14    15   ar
    10    15    16    2
    11    15    17   ar
    12    17    18   ar
    13    18    19   ar
    14    19    20   ar
    15    20    21   ar
    16    21    22   ar
    17     3     4   ar
    18     4     5   ar
    19     5     6   ar
    20     6     7    1
    21     6     8   ar
    22     8     9   ar
    23     9    10   ar
    24    10    11   ar
    25    11    26    1
    26    26    27    1
    27    27    28   ar
    28    27    29   ar
    29    11     2   ar
    30    22    12   ar
    31    10     4   ar
    32    22    17   ar
@<TRIPOS>MOLECULE
*****
 29 32 0 0 0
SMALL
GASTEIGER

@<TRIPOS>ATOM
      1 C          63.2454   84.1333    8.9705 C.3     1  UNL1        0.0500
      2 C          63.1104   84.0513   10.4621 C.ar    1  UNL1        0.0378
      3 C          62.5798   85.1294   11.3600 C.ar    1  UNL1        0.0146
      4 C          62.6238   84.6212   12.7706 C.ar    1  UNL1        0.0192
      5 C          62.2280   85.2463   14.0754 C.ar    1  UNL1        0.0311
      6 C          62.3900   84.4792   15.3542 C.ar    1  UNL1        0.1402
      7 F          61.9942   85.1042   16.6590 F       1  UNL1       -0.2042
      8 C          62.9479   83.0870   15.3281 C.ar    1  UNL1        0.0311
      9 C          63.3437   82.4619   14.0233 C.ar    1  UNL1        0.0195
     10 C          63.1817   83.2290   12.7445 C.ar    1  UNL1        0.0601
     11 N          63.4824   82.8768   11.3178 N.ar    1  UNL1       -0.3253
     12 C          62.0909   86.4788   10.9238 C.ar    1  UNL1        0.0186
     13 C          61.1343   86.5944    9.7742 C.ar    1  UNL1        0.0782
     14 N          60.6455   87.9437    9.3381 N.ar    1  UNL1       -0.2960
     15 C          61.1132   89.1775   10.0515 C.ar    1  UNL1        0.2608
     16 O          60.6243   90.5268    9.6153 O.2     1  UNL1       -0.2670
     17 C          62.0698   89.0619   11.2011 C.ar    1  UNL1        0.0562
     18 C          62.5375   90.2957   11.9145 C.ar    1  UNL1        0.0047
     19 C          63.4941   90.1801   13.0641 C.ar    1  UNL1        0.0002
     20 C          63.9829   88.8308   13.5002 C.ar    1  UNL1        0.0000
     21 C          63.5152   87.5970   12.7868 C.ar    1  UNL1        0.0002
     22 C          62.5587   87.7126   11.6373 C.ar    1  UNL1        0.0061
     23 C          59.6888   88.0593    8.1884 C.3     1  UNL1        0.0886
     24 C          59.6718   89.3022    7.3489 C.3     1  UNL1        0.0246
     25 C          58.7493   86.9318    7.8784 C.3     1  UNL1        0.0246
     26 C          64.0547   81.5782   10.8321 C.3     1  UNL1        0.1474
     27 C          63.2066   80.3409   10.8247 C.2     1  UNL1        0.0732
     28 O          62.6450   79.8089   12.1098 O.co2   1  UNL1       -0.5472
     29 O          62.9201   79.6357    9.5322 O.co2   1  UNL1       -0.5472
@<TRIPOS>UNITY_ATOM_ATTR
28 1
charge -1
@<TRIPOS>BOND
     1     1     2    1
     2     2     3   ar
     3     3    12    1
     4    12    13   ar
     5    13    14   ar
     6    14    23    1
     7    23    24    1
     8    23    25    1
     9    14    15   ar
    10    15    16    2
    11    15    17   ar
    12    17    18   ar
    13    18    19   ar
    14    19    20   ar
    15    20    21   ar
    16    21    22   ar
    17     3     4   ar
    18     4     5   ar
    19     5     6   ar
    20     6     7    1
    21     6     8   ar
    22     8     9   ar
    23     9    10   ar
    24    10    11   ar
    25    11    26    1
    26    26    27    1
    27    27    28   ar
    28    27    29   ar
    29    11     2   ar
    30    22    12   ar
    31    10     4   ar
    32    22    17   ar
@<TRIPOS>MOLECULE
*****
 29 32 0 0 0
SMALL
GASTEIGER

@<TRIPOS>ATOM
      1 C          64.3738   86.8754   13.9417 C.3     1  UNL1        0.0500
      2 C          63.4424   87.2152   12.8160 C.ar    1  UNL1        0.0378
      3 C          63.2272   88.5795   12.2309 C.ar    1  UNL1        0.0146
      4 C          62.2146   88.4577   11.1311 C.ar    1  UNL1        0.0192
      5 C          61.6133   89.4717   10.2036 C.ar    1  UNL1        0.0311
      6 C          60.6014   89.0461    9.1814 C.ar    1  UNL1        0.1402
      7 F          60.0002   90.0600    8.2538 F       1  UNL1       -0.2042
      8 C          60.1907   87.6065    9.0867 C.ar    1  UNL1        0.0311
      9 C          60.7920   86.5925   10.0143 C.ar    1  UNL1        0.0195
     10 C          61.8039   87.0181   11.0364 C.ar    1  UNL1        0.0601
     11 N          62.5627   86.2502   12.0778 N.ar    1  UNL1       -0.3253
     12 C          63.9056   89.8436   12.6688 C.ar    1  UNL1        0.0186
     13 C          64.6116   90.7032   11.6626 C.ar    1  UNL1        0.0782
     14 N          65.2900   91.9674   12.1004 N.ar    1  UNL1       -0.2960
     15 C          65.2624   92.3719   13.5446 C.ar    1  UNL1        0.2608
     16 O          65.9408   93.6361   13.9824 O.2     1  UNL1       -0.2670
     17 C          64.5563   91.5123   14.5509 C.ar    1  UNL1        0.0562
     18 C          64.5287   91.9169   15.9950 C.ar    1  UNL1        0.0047
     19 C          63.8226   91.0573   17.0013 C.ar    1  UNL1        0.0002
     20 C          63.1443   89.7932   16.5634 C.ar    1  UNL1        0.0000
     21 C          63.1719   89.3886   15.1193 C.ar    1  UNL1        0.0002
     22 C          63.8779   90.2482   14.1130 C.ar    1  UNL1        0.0061
     23 C          65.9961   92.8270   11.0941 C.3     1  UNL1        0.0886
     24 C          65.4122   94.1503   10.6969 C.3     1  UNL1        0.0246
     25 C          67.2860   92.3632   10.4850 C.3     1  UNL1        0.0246
     26 C          62.4600   84.7761   12.3357 C.3     1  UNL1        0.1474
     27 C          63.5323   83.8515   11.8403 C.2     1  UNL1        0.0732
     28 O          64.4016   83.1187   12.8187 O.co2   1  UNL1       -0.5472
     29 O          63.7352   83.6596   10.3665 O.co2   1  UNL1       -0.5472
@<TRIPOS>UNITY_ATOM_ATTR
28 1
charge -1
@<TRIPOS>BOND
     1     1     2    1
     2     2     3   ar
     3     3    12    1
     4    12    13   ar
     5    13    14   ar
     6    14    23    1
     7    23    24    1
     8    23    25    1
     9    14    15   ar
    10    15    16    2
    11    15    17   ar
    12    17    18   ar
    13    18    19   ar
    14    19    20   ar
    15    20    21   ar
    16    21    22   ar
    17     3     4   ar
    18     4     5   ar
    19     5     6   ar
    20     6     7    1
    21     6     8   ar
    22     8     9   ar
    23     9    10   ar
    24    10    11   ar
    25    11    26    1
    26    26    27    1
    27    27    28   ar
    28    27    29   ar
    29    11     2   ar
    30    22    12   ar
    31    10     4   ar
    32    22    17   ar
@<TRIPOS>MOLECULE
*****
 29 32 0 0 0
SMALL
GASTEIGER

@<TRIPOS>ATOM
      1 C          63.9621   89.9135   15.7565 C.3     1  UNL1        0.0500
      2 C          64.4900   90.7849   14.6556 C.ar    1  UNL1        0.0378
      3 C          64.2368   90.6023   13.1884 C.ar    1  UNL1        0.0146
      4 C          64.9541   91.6964   12.4546 C.ar    1  UNL1        0.0192
      5 C          65.0630   92.0216   10.9944 C.ar    1  UNL1        0.0311
      6 C          65.8685   93.2055   10.5477 C.ar    1  UNL1        0.1402
      7 F          65.9774   93.5308    9.0875 F       1  UNL1       -0.2042
      8 C          66.5650   94.0643   11.5613 C.ar    1  UNL1        0.0311
      9 C          66.4561   93.7391   13.0216 C.ar    1  UNL1        0.0195
     10 C          65.6507   92.5551   13.4682 C.ar    1  UNL1        0.0601
     11 N          65.3638   91.9918   14.8285 N.ar    1  UNL1       -0.3253
     12 C          63.4113   89.5163   12.5646 C.ar    1  UNL1        0.0186
     13 C          62.4192   89.8515   11.4907 C.ar    1  UNL1        0.0782
     14 N          61.5936   88.7655   10.8669 N.ar    1  UNL1       -0.2960
     15 C          61.7602   87.3444   11.3170 C.ar    1  UNL1        0.2608
     16 O          60.9346   86.2584   10.6932 O.2     1  UNL1       -0.2670
     17 C          62.7523   87.0092   12.3910 C.ar    1  UNL1        0.0562
     18 C          62.9189   85.5881   12.8411 C.ar    1  UNL1        0.0047
     19 C          63.9110   85.2529   13.9150 C.ar    1  UNL1        0.0002
     20 C          64.7365   86.3389   14.5388 C.ar    1  UNL1        0.0000
     21 C          64.5700   87.7600   14.0887 C.ar    1  UNL1        0.0002
     22 C          63.5779   88.0951   13.0148 C.ar    1  UNL1        0.0061
     23 C          60.6015   89.1007    9.7929 C.3     1  UNL1        0.0886
     24 C          59.7167   90.3032    9.9381 C.3     1  UNL1        0.0246
     25 C          60.4942   88.2334    8.5737 C.3     1  UNL1        0.0246
     26 C          65.8631   92.5392   16.1328 C.3     1  UNL1        0.1474
     27 C          67.3196   92.8531   16.3061 C.2     1  UNL1        0.0732
     28 O          67.8308   94.2309   16.0057 O.co2   1  UNL1       -0.5472
     29 O          68.2650   91.7891   16.7797 O.co2   1  UNL1       -0.5472
@<TRIPOS>UNITY_ATOM_ATTR
28 1
charge -1
@<TRIPOS>BOND
     1     1     2    1
     2     2     3   ar
     3     3    12    1
     4    12    13   ar
     5    13    14   ar
     6    14    23    1
     7    23    24    1
     8    23    25    1
     9    14    15   ar
    10    15    16    2
    11    15    17   ar
    12    17    18   ar
    13    18    19   ar
    14    19    20   ar
    15    20    21   ar
    16    21    22   ar
    17     3     4   ar
    18     4     5   ar
    19     5     6   ar
    20     6     7    1
    21     6     8   ar
    22     8     9   ar
    23     9    10   ar
    24    10    11   ar
    25    11    26    1
    26    26    27    1
    27    27    28   ar
    28    27    29   ar
    29    11     2   ar
    30    22    12   ar
    31    10     4   ar
    32    22    17   ar
@<TRIPOS>MOLECULE
*****
 29 32 0 0 0
SMALL
GASTEIGER

@<TRIPOS>ATOM
      1 C          63.3353   85.8130   15.6078 C.3     1  UNL1        0.0500
      2 C          63.3324   85.2328   14.2245 C.ar    1  UNL1        0.0378
      3 C          63.3369   86.0108   12.9421 C.ar    1  UNL1        0.0146
      4 C          63.3318   85.0316   11.8059 C.ar    1  UNL1        0.0192
      5 C          63.3331   85.2207   10.3179 C.ar    1  UNL1        0.0311
      6 C          63.3269   84.0267    9.4101 C.ar    1  UNL1        0.1402
      7 F          63.3282   84.2157    7.9221 F       1  UNL1       -0.2042
      8 C          63.3193   82.6434    9.9903 C.ar    1  UNL1        0.0311
      9 C          63.3180   82.4543   11.4783 C.ar    1  UNL1        0.0195
     10 C          63.3243   83.6483   12.3861 C.ar    1  UNL1        0.0601
     11 N          63.3246   83.7727   13.8809 N.ar    1  UNL1       -0.3253
     12 C          63.3450   87.5057   12.8177 C.ar    1  UNL1        0.0186
     13 C          64.1209   88.3356   13.7971 C.ar    1  UNL1        0.0782
     14 N          64.1290   89.8304   13.6727 N.ar    1  UNL1       -0.2960
     15 C          63.3612   90.4953   12.5690 C.ar    1  UNL1        0.2608
     16 O          63.3693   91.9901   12.4446 O.2     1  UNL1       -0.2670
     17 C          62.5852   89.6654   11.5895 C.ar    1  UNL1        0.0562
     18 C          61.8174   90.3303   10.4858 C.ar    1  UNL1        0.0047
     19 C          61.0416   89.5004    9.5064 C.ar    1  UNL1        0.0002
     20 C          61.0335   88.0056    9.6308 C.ar    1  UNL1        0.0000
     21 C          61.8013   87.3407   10.7345 C.ar    1  UNL1        0.0002
     22 C          62.5771   88.1706   11.7139 C.ar    1  UNL1        0.0061
     23 C          64.9049   90.6603   14.6522 C.3     1  UNL1        0.0886
     24 C          66.3305   91.0254   14.3620 C.3     1  UNL1        0.0246
     25 C          64.2552   91.1250   15.9218 C.3     1  UNL1        0.0246
     26 C          63.3183   82.6365   14.8602 C.3     1  UNL1        0.1474
     27 C          62.6431   81.3448   14.5060 C.2     1  UNL1        0.0732
     28 O          61.1543   81.3006   14.3290 O.co2   1  UNL1       -0.5472
     29 O          63.4568   80.0972   14.3287 O.co2   1  UNL1       -0.5472
@<TRIPOS>UNITY_ATOM_ATTR
28 1
charge -1
@<TRIPOS>BOND
     1     1     2    1
     2     2     3   ar
     3     3    12    1
     4    12    13   ar
     5    13    14   ar
     6    14    23    1
     7    23    24    1
     8    23    25    1
     9    14    15   ar
    10    15    16    2
    11    15    17   ar
    12    17    18   ar
    13    18    19   ar
    14    19    20   ar
    15    20    21   ar
    16    21    22   ar
    17     3     4   ar
    18     4     5   ar
    19     5     6   ar
    20     6     7    1
    21     6     8   ar
    22     8     9   ar
    23     9    10   ar
    24    10    11   ar
    25    11    26    1
    26    26    27    1
    27    27    28   ar
    28    27    29   ar
    29    11     2   ar
    30    22    12   ar
    31    10     4   ar
    32    22    17   ar
@<TRIPOS>MOLECULE
*****
 29 32 0 0 0
SMALL
GASTEIGER

@<TRIPOS>ATOM
      1 C          65.3619   89.7363   14.7688 C.3     1  UNL1        0.0500
      2 C          64.4549   89.6865   13.5751 C.ar    1  UNL1        0.0378
      3 C          63.6627   88.4974   13.1188 C.ar    1  UNL1        0.0146
      4 C          62.8990   88.8932   11.8899 C.ar    1  UNL1        0.0192
      5 C          61.9534   88.1332   11.0077 C.ar    1  UNL1        0.0311
      6 C          61.3280   88.8070    9.8224 C.ar    1  UNL1        0.1402
      7 F          60.3824   88.0471    8.9402 F       1  UNL1       -0.2042
      8 C          61.6483   90.2407    9.5193 C.ar    1  UNL1        0.0311
      9 C          62.5939   91.0006   10.4014 C.ar    1  UNL1        0.0195
     10 C          63.2193   90.3269   11.5867 C.ar    1  UNL1        0.0601
     11 N          64.1809   90.8172   12.6283 N.ar    1  UNL1       -0.3253
     12 C          63.6383   87.1492   13.7759 C.ar    1  UNL1        0.0186
     13 C          63.8521   85.9114   12.9562 C.ar    1  UNL1        0.0782
     14 N          63.8278   84.5632   13.6134 N.ar    1  UNL1       -0.2960
     15 C          63.5897   84.4529   15.0902 C.ar    1  UNL1        0.2608
     16 O          63.5654   83.1047   15.7474 O.2     1  UNL1       -0.2670
     17 C          63.3759   85.6908   15.9100 C.ar    1  UNL1        0.0562
     18 C          63.1379   85.5805   17.3868 C.ar    1  UNL1        0.0047
     19 C          62.9241   86.8184   18.2065 C.ar    1  UNL1        0.0002
     20 C          62.9485   88.1665   17.5494 C.ar    1  UNL1        0.0000
     21 C          63.1865   88.2768   16.0725 C.ar    1  UNL1        0.0002
     22 C          63.4003   87.0390   15.2529 C.ar    1  UNL1        0.0061
     23 C          64.0415   83.3253   12.7936 C.3     1  UNL1        0.0886
     24 C          63.7745   81.9752   13.3903 C.3     1  UNL1        0.0246
     25 C          64.5223   83.4375   11.3772 C.3     1  UNL1        0.0246
     26 C          64.7658   92.1961   12.7089 C.3     1  UNL1        0.1474
     27 C          66.0177   92.5253   11.9511 C.2     1  UNL1        0.0732
     28 O          65.9558   92.7774   10.4737 O.co2   1  UNL1       -0.5472
     29 O          67.3316   92.6023   12.6706 O.co2   1  UNL1       -0.5472
@<TRIPOS>UNITY_ATOM_ATTR
28 1
charge -1
@<TRIPOS>BOND
     1     1     2    1
     2     2     3   ar
     3     3    12    1
     4    12    13   ar
     5    13    14   ar
     6    14    23    1
     7    23    24    1
     8    23    25    1
     9    14    15   ar
    10    15    16    2
    11    15    17   ar
    12    17    18   ar
    13    18    19   ar
    14    19    20   ar
    15    20    21   ar
    16    21    22   ar
    17     3     4   ar
    18     4     5   ar
    19     5     6   ar
    20     6     7    1
    21     6     8   ar
    22     8     9   ar
    23     9    10   ar
    24    10    11   ar
    25    11    26    1
    26    26    27    1
    27    27    28   ar
    28    27    29   ar
    29    11     2   ar
    30    22    12   ar
    31    10     4   ar
    32    22    17   ar
@<TRIPOS>MOLECULE
*****
 29 32 0 0 0
SMALL
GASTEIGER

@<TRIPOS>ATOM
      1 C          60.1214   90.4832   10.2475 C.3     1  UNL1        0.0500
      2 C          60.6686   89.1748    9.7591 C.ar    1  UNL1        0.0378
      3 C          61.8642   88.4576   10.3123 C.ar    1  UNL1        0.0146
      4 C          62.0508   87.1934    9.5267 C.ar    1  UNL1        0.0192
      5 C          63.0649   86.0923    9.6231 C.ar    1  UNL1        0.0311
      6 C          62.9987   84.9272    8.6807 C.ar    1  UNL1        0.1402
      7 F          64.0126   83.8261    8.7770 F       1  UNL1       -0.2042
      8 C          61.9184   84.8632    7.6419 C.ar    1  UNL1        0.0311
      9 C          60.9044   85.9643    7.5456 C.ar    1  UNL1        0.0195
     10 C          60.9706   87.1294    8.4880 C.ar    1  UNL1        0.0601
     11 N          60.1163   88.3540    8.6316 N.ar    1  UNL1       -0.3253
     12 C          62.7225   88.9227   11.4512 C.ar    1  UNL1        0.0186
     13 C          62.8625   88.0742   12.6801 C.ar    1  UNL1        0.0782
     14 N          63.7208   88.5393   13.8190 N.ar    1  UNL1       -0.2960
     15 C          64.4390   89.8531   13.7289 C.ar    1  UNL1        0.2608
     16 O          65.2973   90.3182   14.8678 O.2     1  UNL1       -0.2670
     17 C          64.2990   90.7017   12.4999 C.ar    1  UNL1        0.0562
     18 C          65.0172   92.0155   12.4099 C.ar    1  UNL1        0.0047
     19 C          64.8772   92.8640   11.1810 C.ar    1  UNL1        0.0002
     20 C          64.0189   92.3989   10.0421 C.ar    1  UNL1        0.0000
     21 C          63.3007   91.0851   10.1322 C.ar    1  UNL1        0.0002
     22 C          63.4407   90.2366   11.3611 C.ar    1  UNL1        0.0061
     23 C          63.8608   87.6907   15.0479 C.3     1  UNL1        0.0886
     24 C          64.5777   86.3752   14.9733 C.3     1  UNL1        0.0246
     25 C          63.2838   88.1575   16.3514 C.3     1  UNL1        0.0246
     26 C          58.9199   88.6975    7.7946 C.3     1  UNL1        0.1474
     27 C          59.0706   89.5978    6.6044 C.2     1  UNL1        0.0732
     28 O          60.4361   89.9064    6.0656 O.co2   1  UNL1       -0.5472
     29 O          57.8559   90.1895    5.9529 O.co2   1  UNL1       -0.5472
@<TRIPOS>UNITY_ATOM_ATTR
28 1
charge -1
@<TRIPOS>BOND
     1     1     2    1
     2     2     3   ar
     3     3    12    1
     4    12    13   ar
     5    13    14   ar
     6    14    23    1
     7    23    24    1
     8    23    25    1
     9    14    15   ar
    10    15    16    2
    11    15    17   ar
    12    17    18   ar
    13    18    19   ar
    14    19    20   ar
    15    20    21   ar
    16    21    22   ar
    17     3     4   ar
    18     4     5   ar
    19     5     6   ar
    20     6     7    1
    21     6     8   ar
    22     8     9   ar
    23     9    10   ar
    24    10    11   ar
    25    11    26    1
    26    26    27    1
    27    27    28   ar
    28    27    29   ar
    29    11     2   ar
    30    22    12   ar
    31    10     4   ar
    32    22    17   ar
@<TRIPOS>MOLECULE
*****
 29 32 0 0 0
SMALL
GASTEIGER

@<TRIPOS>ATOM
      1 C          64.2574   91.4714   10.1535 C.3     1  UNL1        0.0500
      2 C          64.1682   91.2489   11.6342 C.ar    1  UNL1        0.0378
      3 C          63.4692   90.1090   12.3140 C.ar    1  UNL1        0.0146
      4 C          63.6314   90.2829   13.7950 C.ar    1  UNL1        0.0192
      5 C          63.1546   89.4666   14.9596 C.ar    1  UNL1        0.0311
      6 C          63.4770   89.8976   16.3597 C.ar    1  UNL1        0.1402
      7 F          63.0002   89.0813   17.5243 F       1  UNL1       -0.2042
      8 C          64.2762   91.1449   16.5952 C.ar    1  UNL1        0.0311
      9 C          64.7531   91.9612   15.4307 C.ar    1  UNL1        0.0195
     10 C          64.4307   91.5302   14.0306 C.ar    1  UNL1        0.0601
     11 N          64.7624   92.1273   12.6951 N.ar    1  UNL1       -0.3253
     12 C          62.7367   88.9915   11.6324 C.ar    1  UNL1        0.0186
     13 C          61.8129   89.2881   10.4885 C.ar    1  UNL1        0.0782
     14 N          61.0804   88.1705    9.8069 N.ar    1  UNL1       -0.2960
     15 C          61.2716   86.7565   10.2693 C.ar    1  UNL1        0.2608
     16 O          60.5390   85.6390    9.5878 O.2     1  UNL1       -0.2670
     17 C          62.1954   86.4599   11.4133 C.ar    1  UNL1        0.0562
     18 C          62.3866   85.0459   11.8757 C.ar    1  UNL1        0.0047
     19 C          63.3103   84.7493   13.0197 C.ar    1  UNL1        0.0002
     20 C          64.0429   85.8668   13.7012 C.ar    1  UNL1        0.0000
     21 C          63.8517   87.2809   13.2388 C.ar    1  UNL1        0.0002
     22 C          62.9279   87.5774   12.0949 C.ar    1  UNL1        0.0061
     23 C          60.1566   88.4671    8.6629 C.3     1  UNL1        0.0886
     24 C          60.1065   89.8474    8.0778 C.3     1  UNL1        0.0246
     25 C          59.2829   87.3834    8.1040 C.3     1  UNL1        0.0246
     26 C          65.5501   93.3823   12.4615 C.3     1  UNL1        0.1474
     27 C          66.8855   93.3141   11.7817 C.2     1  UNL1        0.0732
     28 O          67.2728   94.3635   10.7824 O.co2   1  UNL1       -0.5472
     29 O          67.8335   92.1964   12.1011 O.co2   1  UNL1       -0.5472
@<TRIPOS>UNITY_ATOM_ATTR
28 1
charge -1
@<TRIPOS>BOND
     1     1     2    1
     2     2     3   ar
     3     3    12    1
     4    12    13   ar
     5    13    14   ar
     6    14    23    1
     7    23    24    1
     8    23    25    1
     9    14    15   ar
    10    15    16    2
    11    15    17   ar
    12    17    18   ar
    13    18    19   ar
    14    19    20   ar
    15    20    21   ar
    16    21    22   ar
    17     3     4   ar
    18     4     5   ar
    19     5     6   ar
    20     6     7    1
    21     6     8   ar
    22     8     9   ar
    23     9    10   ar
    24    10    11   ar
    25    11    26    1
    26    26    27    1
    27    27    28   ar
    28    27    29   ar
    29    11     2   ar
    30    22    12   ar
    31    10     4   ar
    32    22    17   ar
