@<TRIPOS>MOLECULE
*****
 50 57 0 0 0
SMALL
GASTEIGER

@<TRIPOS>ATOM
      1 C          60.4642   90.8913    5.8294 C.2     1  UNL1       -0.0003
      2 C          61.2368   91.4335    4.6636 C.2     1  UNL1       -0.0003
      3 C          60.4514   90.1262    8.3122 C.2     1  UNL1       -0.0261
      4 C          61.1911   90.3575    7.0279 C.2     1  UNL1       -0.0046
      5 C          61.8760   84.3053    8.4346 C.3     1  UNL1        0.0024
      6 C          61.5703   85.7719    8.5097 C.3     1  UNL1        0.0248
      7 C          62.2973   85.2380    9.7082 C.3     1  UNL1        0.0023
      8 C          62.6514   86.1555   10.8408 C.3     1  UNL1        0.0004
      9 C          62.2784   87.6069   10.7750 C.3     1  UNL1        0.0038
     10 C          61.5514   88.1408    9.5765 C.3     1  UNL1        0.0047
     11 C          61.1785   89.5922    9.5107 C.3     1  UNL1        0.0260
     12 C          61.5325   90.5097   10.6433 C.3     1  UNL1        0.0264
     13 C          62.2596   89.9758   11.8418 C.2     1  UNL1       -0.0417
     14 C          62.6136   90.8933   12.9744 C.2     1  UNL1        0.0290
     15 C          63.3406   90.3593   14.1729 C.2     1  UNL1        0.1725
     16 O          63.6947   91.2768   15.3056 O.2     1  UNL1       -0.2914
     17 C          63.7136   88.9079   14.2388 C.3     1  UNL1        0.0694
     18 C          63.3595   87.9905   13.1061 C.3     1  UNL1        0.0118
     19 C          62.6325   88.5244   11.9077 C.3     1  UNL1        0.0157
     20 C          63.0055   87.0730   11.9735 C.3     1  UNL1        0.0041
     21 C          61.1973   87.2234    8.4439 C.3     1  UNL1        0.0027
     22 C          60.4885   87.4612    7.1436 C.3     1  UNL1        0.0026
     23 C          60.4233   86.1569    6.4057 C.3     1  UNL1        0.0292
     24 C          61.0919   85.1129    7.2501 C.3     1  UNL1        0.1104
     25 O          61.2537   83.6640    6.8968 O.3     1  UNL1       -0.3845
     26 H          60.8564   83.4968    6.0278 H       1  UNL1        0.2103
     27 C          60.5098   91.9674    3.4651 C.2     1  UNL1       -0.0046
     28 C          61.2804   92.5640    2.3248 C.2     1  UNL1       -0.0261
     29 C          60.5534   93.0979    1.1262 C.3     1  UNL1        0.0260
     30 C          59.1013   92.7794    0.9265 C.3     1  UNL1        0.0264
     31 C          58.3743   93.3133   -0.2720 C.2     1  UNL1       -0.0417
     32 C          56.9222   92.9947   -0.4718 C.2     1  UNL1        0.0290
     33 C          56.1952   93.5286   -1.6703 C.2     1  UNL1        0.1725
     34 O          54.7430   93.2101   -1.8701 O.2     1  UNL1       -0.2914
     35 C          56.9203   94.3811   -2.6691 C.3     1  UNL1        0.0694
     36 C          58.3724   94.6996   -2.4693 C.3     1  UNL1        0.0118
     37 C          59.0994   94.1657   -1.2708 C.3     1  UNL1        0.0157
     38 C          59.8246   95.0182   -2.2695 C.3     1  UNL1        0.0041
     39 C          60.5515   94.4843   -1.0710 C.3     1  UNL1        0.0038
     40 C          61.2766   95.3367   -2.0698 C.3     1  UNL1        0.0004
     41 C          62.7287   95.6553   -1.8701 C.3     1  UNL1        0.0023
     42 C          63.4558   95.1214   -0.6715 C.3     1  UNL1        0.0248
     43 C          64.3084   95.9562   -1.5804 C.3     1  UNL1        0.0024
     44 C          64.8764   95.2666   -0.2123 C.3     1  UNL1        0.1104
     45 O          65.9547   96.0389   -0.9128 O.3     1  UNL1       -0.3845
     46 C          65.0292   94.5039    1.0701 C.3     1  UNL1        0.0292
     47 C          63.7031   93.8873    1.4037 C.3     1  UNL1        0.0026
     48 C          62.7306   94.2689    0.3273 C.3     1  UNL1        0.0027
     49 C          61.2785   93.9504    0.1275 C.3     1  UNL1        0.0047
     50 H          65.5943   96.4380   -1.7200 H       1  UNL1        0.2103
@<TRIPOS>BOND
     1     6     5    1
     2     6     7    1
     3     7     8    1
     4     9     8    1
     5     9    10    1
     6    10    11    1
     7    11     3    1
     8     3     4    2
     9     4     1    1
    10     1     2    2
    11     2    27    1
    12    27    28    2
    13    29    28    1
    14    29    30    1
    15    30    31    1
    16    31    32    2
    17    32    33    1
    18    33    34    2
    19    33    35    1
    20    35    36    1
    21    36    37    1
    22    37    38    1
    23    37    39    1
    24    39    40    1
    25    40    41    1
    26    41    42    1
    27    42    43    1
    28    42    44    1
    29    44    45    1
    30    44    46    1
    31    46    47    1
    32    48    47    1
    33    48    49    1
    34    11    12    1
    35    12    13    1
    36    13    14    2
    37    14    15    1
    38    15    16    2
    39    15    17    1
    40    17    18    1
    41    18    19    1
    42    19    20    1
    43    10    21    1
    44    21    22    1
    45    22    23    1
    46    23    24    1
    47    24    25    1
    48    21     6    1
    49    24     6    1
    50    19     9    1
    51    49    29    1
    52    19    13    1
    53    37    31    1
    54    49    39    1
    55    48    42    1
    56    45    50    1
    57    25    26    1
@<TRIPOS>MOLECULE
*****
 50 57 0 0 0
SMALL
GASTEIGER

@<TRIPOS>ATOM
      1 C          61.2261   91.4246    4.6800 C.2     1  UNL1       -0.0003
      2 C          60.4516   90.8752    5.8412 C.2     1  UNL1       -0.0003
      3 C          61.2733   92.5742    2.3506 C.2     1  UNL1       -0.0261
      4 C          60.5009   91.9691    3.4851 C.2     1  UNL1       -0.0046
      5 C          64.3001   96.0238   -1.5050 C.3     1  UNL1        0.0024
      6 C          63.4479   95.1750   -0.6086 C.3     1  UNL1        0.0248
      7 C          62.7227   95.7195   -1.8035 C.3     1  UNL1        0.0023
      8 C          61.2727   95.3970   -2.0119 C.3     1  UNL1        0.0004
      9 C          60.5479   94.5301   -1.0255 C.3     1  UNL1        0.0038
     10 C          61.2730   93.9856    0.1693 C.3     1  UNL1        0.0047
     11 C          60.5481   93.1187    1.1557 C.3     1  UNL1        0.0260
     12 C          59.0981   92.7962    0.9473 C.3     1  UNL1        0.0264
     13 C          58.3729   93.3408   -0.2476 C.2     1  UNL1       -0.0417
     14 C          56.9229   93.0183   -0.4560 C.2     1  UNL1        0.0290
     15 C          56.1978   93.5628   -1.6509 C.2     1  UNL1        0.1725
     16 O          54.7477   93.2404   -1.8593 O.2     1  UNL1       -0.2914
     17 C          56.9227   94.4298   -2.6373 C.3     1  UNL1        0.0694
     18 C          58.3727   94.7522   -2.4288 C.3     1  UNL1        0.0118
     19 C          59.0978   94.2077   -1.2340 C.3     1  UNL1        0.0157
     20 C          59.8227   95.0746   -2.2204 C.3     1  UNL1        0.0041
     21 C          62.7231   94.3080    0.3778 C.3     1  UNL1        0.0027
     22 C          63.6934   93.9182    1.4531 C.3     1  UNL1        0.0026
     23 C          65.0180   94.5442    1.1313 C.3     1  UNL1        0.0292
     24 C          64.8662   95.3209   -0.1430 C.3     1  UNL1        0.1104
     25 O          65.9438   96.1058   -0.8307 O.3     1  UNL1       -0.3845
     26 H          66.7676   96.0373   -0.3233 H       1  UNL1        0.2103
     27 C          61.1767   90.3307    7.0360 C.2     1  UNL1       -0.0046
     28 C          60.4366   90.0945    8.3191 C.2     1  UNL1       -0.0261
     29 C          61.1618   89.5500    9.5140 C.3     1  UNL1        0.0260
     30 C          61.5117   90.4568   10.6564 C.3     1  UNL1        0.0264
     31 C          62.2369   89.9122   11.8512 C.2     1  UNL1       -0.0417
     32 C          62.5869   90.8191   12.9937 C.2     1  UNL1        0.0290
     33 C          63.3120   90.2746   14.1885 C.2     1  UNL1        0.1725
     34 O          63.6620   91.1814   15.3310 O.2     1  UNL1       -0.2914
     35 C          63.6873   88.8232   14.2408 C.3     1  UNL1        0.0694
     36 C          63.3373   87.9164   13.0984 C.3     1  UNL1        0.0118
     37 C          62.6121   88.4609   11.9036 C.3     1  UNL1        0.0157
     38 C          62.9873   87.0095   11.9559 C.3     1  UNL1        0.0041
     39 C          62.2622   87.5541   10.7611 C.3     1  UNL1        0.0038
     40 C          62.6374   86.1027   10.8135 C.3     1  UNL1        0.0004
     41 C          62.2874   85.1959    9.6711 C.3     1  UNL1        0.0023
     42 C          61.5622   85.7404    8.4762 C.3     1  UNL1        0.0248
     43 C          61.8705   84.2751    8.3873 C.3     1  UNL1        0.0024
     44 C          61.0878   85.0930    7.2090 C.3     1  UNL1        0.1104
     45 O          61.2528   83.6480    6.8419 O.3     1  UNL1       -0.3845
     46 C          60.4194   86.1442    6.3736 C.3     1  UNL1        0.0292
     47 C          60.4807   87.4413    7.1243 C.3     1  UNL1        0.0026
     48 C          61.1870   87.1917    8.4239 C.3     1  UNL1        0.0027
     49 C          61.5370   88.0986    9.5664 C.3     1  UNL1        0.0047
     50 H          61.7190   83.1844    7.5551 H       1  UNL1        0.2103
@<TRIPOS>BOND
     1     6     5    1
     2     6     7    1
     3     7     8    1
     4     9     8    1
     5     9    10    1
     6    10    11    1
     7    11     3    1
     8     3     4    2
     9     4     1    1
    10     1     2    2
    11     2    27    1
    12    27    28    2
    13    29    28    1
    14    29    30    1
    15    30    31    1
    16    31    32    2
    17    32    33    1
    18    33    34    2
    19    33    35    1
    20    35    36    1
    21    36    37    1
    22    37    38    1
    23    37    39    1
    24    39    40    1
    25    40    41    1
    26    41    42    1
    27    42    43    1
    28    42    44    1
    29    44    45    1
    30    44    46    1
    31    46    47    1
    32    48    47    1
    33    48    49    1
    34    11    12    1
    35    12    13    1
    36    13    14    2
    37    14    15    1
    38    15    16    2
    39    15    17    1
    40    17    18    1
    41    18    19    1
    42    19    20    1
    43    10    21    1
    44    21    22    1
    45    22    23    1
    46    23    24    1
    47    24    25    1
    48    21     6    1
    49    24     6    1
    50    19     9    1
    51    49    29    1
    52    19    13    1
    53    37    31    1
    54    49    39    1
    55    48    42    1
    56    45    50    1
    57    25    26    1
@<TRIPOS>MOLECULE
*****
 50 57 0 0 0
SMALL
GASTEIGER

@<TRIPOS>ATOM
      1 C          60.1182   89.8281    5.6116 C.2     1  UNL1       -0.0003
      2 C          60.8290   90.9790    4.9632 C.2     1  UNL1       -0.0003
      3 C          60.5551   87.6587    6.9726 C.2     1  UNL1       -0.0261
      4 C          60.7317   89.1374    6.7933 C.2     1  UNL1       -0.0046
      5 C          59.8644   90.1141   12.3967 C.3     1  UNL1        0.0024
      6 C          60.0988   89.4137   11.0911 C.3     1  UNL1        0.0248
      7 C          60.7124   88.7230   12.2729 C.3     1  UNL1        0.0023
      8 C          61.4780   87.4473   12.0818 C.3     1  UNL1        0.0004
      9 C          61.6301   86.8623   10.7090 C.3     1  UNL1        0.0038
     10 C          61.0166   87.5530    9.5273 C.3     1  UNL1        0.0047
     11 C          61.1686   86.9680    8.1544 C.3     1  UNL1        0.0260
     12 C          61.9342   85.6923    7.9634 C.3     1  UNL1        0.0264
     13 C          62.5478   85.0016    9.1451 C.2     1  UNL1       -0.0417
     14 C          63.3134   83.7260    8.9541 C.2     1  UNL1        0.0290
     15 C          63.9269   83.0353   10.1358 C.2     1  UNL1        0.1725
     16 O          64.6925   81.7596    9.9448 O.2     1  UNL1       -0.2914
     17 C          63.7748   83.6203   11.5086 C.3     1  UNL1        0.0694
     18 C          63.0092   84.8960   11.6997 C.3     1  UNL1        0.0118
     19 C          62.3957   85.5866   10.5180 C.3     1  UNL1        0.0157
     20 C          62.2436   86.1716   11.8908 C.3     1  UNL1        0.0041
     21 C          60.2509   88.8287    9.7183 C.3     1  UNL1        0.0027
     22 C          59.5407   89.7276    8.7501 C.3     1  UNL1        0.0026
     23 C          58.9496   90.8681    9.5245 C.3     1  UNL1        0.0292
     24 C          59.2946   90.6741   10.9714 C.3     1  UNL1        0.1104
     25 O          58.9039   91.5813   12.1002 O.3     1  UNL1       -0.3845
     26 H          58.3866   92.3249   11.7532 H       1  UNL1        0.2103
     27 C          60.2155   91.6697    3.7815 C.2     1  UNL1       -0.0046
     28 C          61.0906   92.1967    2.6832 C.2     1  UNL1       -0.0261
     29 C          60.4770   92.8875    1.5015 C.3     1  UNL1        0.0260
     30 C          59.0313   92.6646    1.1698 C.3     1  UNL1        0.0264
     31 C          58.4178   93.3553   -0.0119 C.2     1  UNL1       -0.0417
     32 C          56.9719   93.1324   -0.3436 C.2     1  UNL1        0.0290
     33 C          56.3584   93.8231   -1.5253 C.2     1  UNL1        0.1725
     34 O          54.9126   93.6002   -1.8570 O.2     1  UNL1       -0.2914
     35 C          57.1907   94.7368   -2.3753 C.3     1  UNL1        0.0694
     36 C          58.6365   94.9597   -2.0437 C.3     1  UNL1        0.0118
     37 C          59.2500   94.2690   -0.8619 C.3     1  UNL1        0.0157
     38 C          60.0823   95.1826   -1.7120 C.3     1  UNL1        0.0041
     39 C          60.6958   94.4919   -0.5303 C.3     1  UNL1        0.0038
     40 C          61.5281   95.4055   -1.3803 C.3     1  UNL1        0.0004
     41 C          62.9738   95.6284   -1.0487 C.3     1  UNL1        0.0023
     42 C          63.5874   94.9377    0.1331 C.3     1  UNL1        0.0248
     43 C          64.5394   95.8181   -0.6210 C.3     1  UNL1        0.0024
     44 C          64.9753   94.9631    0.7014 C.3     1  UNL1        0.1104
     45 O          66.1343   95.7486    0.1629 O.3     1  UNL1       -0.3845
     46 C          65.0008   94.0652    1.9026 C.3     1  UNL1        0.0292
     47 C          63.6287   93.4848    2.0768 C.3     1  UNL1        0.0026
     48 C          62.7551   94.0240    0.9831 C.3     1  UNL1        0.0027
     49 C          61.3093   93.8011    0.6514 C.3     1  UNL1        0.0047
     50 H          65.8514   96.2467   -0.6199 H       1  UNL1        0.2103
@<TRIPOS>BOND
     1     6     5    1
     2     6     7    1
     3     7     8    1
     4     9     8    1
     5     9    10    1
     6    10    11    1
     7    11     3    1
     8     3     4    2
     9     4     1    1
    10     1     2    2
    11     2    27    1
    12    27    28    2
    13    29    28    1
    14    29    30    1
    15    30    31    1
    16    31    32    2
    17    32    33    1
    18    33    34    2
    19    33    35    1
    20    35    36    1
    21    36    37    1
    22    37    38    1
    23    37    39    1
    24    39    40    1
    25    40    41    1
    26    41    42    1
    27    42    43    1
    28    42    44    1
    29    44    45    1
    30    44    46    1
    31    46    47    1
    32    48    47    1
    33    48    49    1
    34    11    12    1
    35    12    13    1
    36    13    14    2
    37    14    15    1
    38    15    16    2
    39    15    17    1
    40    17    18    1
    41    18    19    1
    42    19    20    1
    43    10    21    1
    44    21    22    1
    45    22    23    1
    46    23    24    1
    47    24    25    1
    48    21     6    1
    49    24     6    1
    50    19     9    1
    51    49    29    1
    52    19    13    1
    53    37    31    1
    54    49    39    1
    55    48    42    1
    56    45    50    1
    57    25    26    1
@<TRIPOS>MOLECULE
*****
 50 57 0 0 0
SMALL
GASTEIGER

@<TRIPOS>ATOM
      1 C          60.8346   90.9753    4.9623 C.2     1  UNL1       -0.0003
      2 C          60.1130   89.8415    5.6286 C.2     1  UNL1       -0.0003
      3 C          61.0850   92.1977    2.6835 C.2     1  UNL1       -0.0261
      4 C          60.2154   91.6704    3.7861 C.2     1  UNL1       -0.0046
      5 C          64.5069   95.8644   -0.5986 C.3     1  UNL1        0.0024
      6 C          63.5614   94.9726    0.1502 C.3     1  UNL1        0.0248
      7 C          62.9422   95.6677   -1.0260 C.3     1  UNL1        0.0023
      8 C          61.4975   95.4379   -1.3577 C.3     1  UNL1        0.0004
      9 C          60.6720   94.5130   -0.5133 C.3     1  UNL1        0.0038
     10 C          61.2912   93.8178    0.6629 C.3     1  UNL1        0.0047
     11 C          60.4657   92.8929    1.5073 C.3     1  UNL1        0.0260
     12 C          59.0210   92.6631    1.1756 C.3     1  UNL1        0.0264
     13 C          58.4018   93.3582   -0.0006 C.2     1  UNL1       -0.0417
     14 C          56.9571   93.1285   -0.3323 C.2     1  UNL1        0.0290
     15 C          56.3379   93.8236   -1.5084 C.2     1  UNL1        0.1725
     16 O          54.8932   93.5938   -1.8402 O.2     1  UNL1       -0.2914
     17 C          57.1634   94.7485   -2.3529 C.3     1  UNL1        0.0694
     18 C          58.6081   94.9783   -2.0212 C.3     1  UNL1        0.0118
     19 C          59.2273   94.2832   -0.8450 C.3     1  UNL1        0.0157
     20 C          60.0527   95.2081   -1.6894 C.3     1  UNL1        0.0041
     21 C          62.7359   94.0476    0.9947 C.3     1  UNL1        0.0027
     22 C          63.6141   93.5063    2.0835 C.3     1  UNL1        0.0026
     23 C          64.9823   94.0966    1.9121 C.3     1  UNL1        0.0292
     24 C          64.9497   95.0028    0.7172 C.3     1  UNL1        0.1104
     25 O          66.1031   95.7995    0.1832 O.3     1  UNL1       -0.3845
     26 H          66.8871   95.6411    0.7320 H       1  UNL1        0.2103
     27 C          60.7322   89.1464    6.8047 C.2     1  UNL1       -0.0046
     28 C          60.5339   87.6717    6.9940 C.2     1  UNL1       -0.0261
     29 C          61.1531   86.9765    8.1703 C.3     1  UNL1        0.0260
     30 C          61.9233   85.7051    7.9699 C.3     1  UNL1        0.0264
     31 C          62.5425   85.0100    9.1461 C.2     1  UNL1       -0.0417
     32 C          63.3127   83.7385    8.9457 C.2     1  UNL1        0.0290
     33 C          63.9319   83.0435   10.1219 C.2     1  UNL1        0.1725
     34 O          64.7021   81.7719    9.9215 O.2     1  UNL1       -0.2914
     35 C          63.7809   83.6199   11.4985 C.3     1  UNL1        0.0694
     36 C          63.0107   84.8913   11.6989 C.3     1  UNL1        0.0118
     37 C          62.3915   85.5864   10.5226 C.3     1  UNL1        0.0157
     38 C          62.2405   86.1628   11.8992 C.3     1  UNL1        0.0041
     39 C          61.6213   86.8579   10.7230 C.3     1  UNL1        0.0038
     40 C          61.4703   87.4343   12.0996 C.3     1  UNL1        0.0004
     41 C          60.7001   88.7057   12.3000 C.3     1  UNL1        0.0023
     42 C          60.0809   89.4008   11.1238 C.3     1  UNL1        0.0248
     43 C          59.8469   90.0928   12.4339 C.3     1  UNL1        0.0024
     44 C          59.2713   90.6588   11.0133 C.3     1  UNL1        0.1104
     45 O          58.8798   91.5578   12.1484 O.3     1  UNL1       -0.3845
     46 C          58.9220   90.8598    9.5685 C.3     1  UNL1        0.0292
     47 C          59.5156   89.7262    8.7860 C.3     1  UNL1        0.0026
     48 C          60.2319   88.8244    9.7472 C.3     1  UNL1        0.0027
     49 C          61.0021   87.5529    9.5468 C.3     1  UNL1        0.0047
     50 H          59.2321   91.2018   12.9791 H       1  UNL1        0.2103
@<TRIPOS>BOND
     1     6     5    1
     2     6     7    1
     3     7     8    1
     4     9     8    1
     5     9    10    1
     6    10    11    1
     7    11     3    1
     8     3     4    2
     9     4     1    1
    10     1     2    2
    11     2    27    1
    12    27    28    2
    13    29    28    1
    14    29    30    1
    15    30    31    1
    16    31    32    2
    17    32    33    1
    18    33    34    2
    19    33    35    1
    20    35    36    1
    21    36    37    1
    22    37    38    1
    23    37    39    1
    24    39    40    1
    25    40    41    1
    26    41    42    1
    27    42    43    1
    28    42    44    1
    29    44    45    1
    30    44    46    1
    31    46    47    1
    32    48    47    1
    33    48    49    1
    34    11    12    1
    35    12    13    1
    36    13    14    2
    37    14    15    1
    38    15    16    2
    39    15    17    1
    40    17    18    1
    41    18    19    1
    42    19    20    1
    43    10    21    1
    44    21    22    1
    45    22    23    1
    46    23    24    1
    47    24    25    1
    48    21     6    1
    49    24     6    1
    50    19     9    1
    51    49    29    1
    52    19    13    1
    53    37    31    1
    54    49    39    1
    55    48    42    1
    56    45    50    1
    57    25    26    1
