@<TRIPOS>MOLECULE
*****
 49 55 0 0 0
SMALL
GASTEIGER

@<TRIPOS>ATOM
      1 C          60.6895   88.0831    8.8797 C.3     1  UNL1        0.1543
      2 O          58.1737   89.0025    7.5286 O.2     1  UNL1       -0.2526
      3 C          59.5083   89.4652    7.0238 C.2     1  UNL1        0.3043
      4 N          60.7662   89.0055    7.6994 N.am    1  UNL1       -0.2822
      5 N          59.5850   90.3876    5.8435 N.am    1  UNL1       -0.2641
      6 C          58.3271   90.8473    5.1679 C.3     1  UNL1        0.0966
      7 C          58.4038   91.7698    3.9875 C.3     1  UNL1        0.0415
      8 C          59.7384   92.2325    3.4828 C.3     1  UNL1        0.0806
      9 C          60.9963   91.7728    4.1583 C.3     1  UNL1        0.0415
     10 C          60.9196   90.8504    5.3387 C.3     1  UNL1        0.0966
     11 H          61.6421   89.3092    7.3681 H       1  UNL1        0.1514
     12 N          59.8151   93.1549    2.3024 N.am    1  UNL1       -0.2613
     13 C          59.7990   92.5952    0.9109 C.3     1  UNL1        0.1228
     14 C          59.8757   93.5177   -0.2695 C.ar    1  UNL1        0.0112
     15 C          59.8597   92.9579   -1.6611 C.ar    1  UNL1       -0.0014
     16 C          59.9364   93.8803   -2.8414 C.ar    1  UNL1       -0.0002
     17 C          60.0291   95.3626   -2.6302 C.ar    1  UNL1        0.0013
     18 C          60.0451   95.9223   -1.2387 C.ar    1  UNL1        0.0144
     19 C          59.9684   94.9998   -0.0583 C.ar    1  UNL1        0.0492
     20 N          59.9845   95.5595    1.3333 N.am    1  UNL1       -0.2684
     21 C          59.9078   94.6371    2.5136 C.2     1  UNL1        0.3079
     22 O          59.9238   95.1968    3.9052 O.2     1  UNL1       -0.2522
     23 H          60.0453   96.5323    1.4719 H       1  UNL1        0.1564
     24 C          60.4584   88.6401   10.2532 C.2     1  UNL1        0.2439
     25 O          59.1583   88.3854   10.9568 O.2     1  UNL1       -0.2731
     26 N          61.5272   89.4519   10.9229 N.am    1  UNL1       -0.2781
     27 C          62.8271   89.7066   10.2193 C.3     1  UNL1        0.0948
     28 C          63.8960   90.5184   10.8890 C.3     1  UNL1        0.0375
     29 C          63.6649   91.0754   12.2625 C.3     1  UNL1        0.0609
     30 C          62.3648   90.8207   12.9661 C.3     1  UNL1        0.0375
     31 C          61.2960   90.0089   12.2963 C.3     1  UNL1        0.0948
     32 N          64.7337   91.8872   12.9322 N.3     1  UNL1       -0.2738
     33 C          65.1097   91.6029   14.3562 C.3     1  UNL1        0.0720
     34 C          66.1786   92.4147   15.0260 C.3     1  UNL1        0.0174
     35 C          66.8714   93.5107   14.2718 C.3     1  UNL1        0.0029
     36 C          66.4953   93.7950   12.8478 C.3     1  UNL1        0.0174
     37 C          65.4265   92.9832   12.1780 C.3     1  UNL1        0.0720
     38 C          60.8440   86.6035    8.6867 C.3     1  UNL1        0.0552
     39 C          61.6476   85.7994    9.6651 C.2     1  UNL1       -0.0200
     40 C          62.6512   84.8006    9.1698 C.2     1  UNL1       -0.0133
     41 C          63.4549   83.9965   10.1483 C.3     1  UNL1        0.1194
     42 BR         64.4584   82.9977    9.6530 Br      1  UNL1       -0.0705
     43 C          63.2550   84.1910   11.6221 C.2     1  UNL1        0.1032
     44 N          63.8966   83.5477   12.8156 N.am    1  UNL1       -0.1422
     45 C          63.2896   84.1488   14.0486 C.2     1  UNL1        0.4298
     46 O          63.6382   83.7969   15.4645 O.2     1  UNL1       -0.2238
     47 O          62.2728   85.1637   13.6171 O.3     1  UNL1       -0.4078
     48 C          62.2514   85.1898   12.1175 C.2     1  UNL1        0.1621
     49 C          61.4477   85.9940   11.1390 C.2     1  UNL1        0.0342
@<TRIPOS>BOND
     1     2     3    2
     2     3     4   am
     3     4     1    1
     4     1    38    1
     5    38    39    1
     6    39    40    2
     7    40    41    1
     8    41    42    1
     9    41    43    1
    10    43    44    2
    11    44    45    1
    12    45    46    2
    13    45    47    1
    14    47    48    1
    15    48    49    2
    16     1    24    1
    17    24    25    2
    18    24    26   am
    19    26    27    1
    20    27    28    1
    21    28    29    1
    22    29    32    1
    23    32    33    1
    24    33    34    1
    25    34    35    1
    26    35    36    1
    27    36    37    1
    28    29    30    1
    29    30    31    1
    30     3     5   am
    31     5     6    1
    32     6     7    1
    33     7     8    1
    34     8    12    1
    35    12    13    1
    36    13    14    1
    37    14    15   ar
    38    15    16   ar
    39    16    17   ar
    40    17    18   ar
    41    18    19   ar
    42    19    20    1
    43    20    21   am
    44    21    22    2
    45     8     9    1
    46     9    10    1
    47    49    39    1
    48    31    26    1
    49    10     5    1
    50    48    43    1
    51    37    32    1
    52    21    12   am
    53    19    14   ar
    54     4    11    1
    55    20    23    1
@<TRIPOS>MOLECULE
*****
 49 55 0 0 0
SMALL
GASTEIGER

@<TRIPOS>ATOM
      1 C          60.2538   89.1913    8.1648 C.3     1  UNL1        0.1543
      2 O          58.1042   90.3376    6.4141 O.2     1  UNL1       -0.2526
      3 C          59.5475   90.5374    6.0579 C.2     1  UNL1        0.3043
      4 N          60.6223   89.9643    6.9333 N.am    1  UNL1       -0.2822
      5 N          59.9159   91.3104    4.8264 N.am    1  UNL1       -0.2641
      6 C          58.8411   91.8835    3.9510 C.3     1  UNL1        0.0966
      7 C          59.2096   92.6565    2.7194 C.3     1  UNL1        0.0415
      8 C          60.6529   92.8563    2.3632 C.3     1  UNL1        0.0806
      9 C          61.7277   92.2831    3.2386 C.3     1  UNL1        0.0415
     10 C          61.3593   91.5102    4.4701 C.3     1  UNL1        0.0966
     11 H          61.5696   90.0954    6.6994 H       1  UNL1        0.1514
     12 N          61.0213   93.6292    1.1317 N.am    1  UNL1       -0.2613
     13 C          61.6982   92.9367   -0.0139 C.3     1  UNL1        0.1228
     14 C          62.0667   93.7098   -1.2455 C.ar    1  UNL1        0.0112
     15 C          62.7436   93.0173   -2.3911 C.ar    1  UNL1       -0.0014
     16 C          63.1120   93.7902   -3.6226 C.ar    1  UNL1       -0.0002
     17 C          62.8036   95.2557   -3.7087 C.ar    1  UNL1        0.0013
     18 C          62.1267   95.9482   -2.5631 C.ar    1  UNL1        0.0144
     19 C          61.7582   95.1752   -1.3315 C.ar    1  UNL1        0.0492
     20 N          61.0814   95.8676   -0.1859 N.am    1  UNL1       -0.2684
     21 C          60.7129   95.0947    1.0456 C.2     1  UNL1        0.3079
     22 O          60.0360   95.7871    2.1912 O.2     1  UNL1       -0.2522
     23 H          60.8789   96.8294   -0.2424 H       1  UNL1        0.1564
     24 C          60.2129   87.6924    8.1253 C.2     1  UNL1        0.2439
     25 O          59.4149   86.9916    7.0660 O.2     1  UNL1       -0.2731
     26 N          60.9700   86.8943    9.1450 N.am    1  UNL1       -0.2781
     27 C          61.7679   87.5952   10.2043 C.3     1  UNL1        0.0948
     28 C          62.5250   86.7971   11.2241 C.3     1  UNL1        0.0375
     29 C          62.4841   85.2982   11.1846 C.3     1  UNL1        0.0609
     30 C          61.6861   84.5973   10.1253 C.3     1  UNL1        0.0375
     31 C          60.9290   85.3954    9.1055 C.3     1  UNL1        0.0948
     32 N          63.2412   84.5001   12.2043 N.3     1  UNL1       -0.2738
     33 C          63.5811   83.0648   11.9318 C.3     1  UNL1        0.0720
     34 C          64.3382   82.2667   12.9515 C.3     1  UNL1        0.0174
     35 C          64.7553   82.9039   14.2438 C.3     1  UNL1        0.0029
     36 C          64.4153   84.3392   14.5163 C.3     1  UNL1        0.0174
     37 C          63.6583   85.1373   13.4966 C.3     1  UNL1        0.0720
     38 C          59.9263   89.9173    9.4360 C.3     1  UNL1        0.0552
     39 C          61.0133   90.2355   10.4194 C.2     1  UNL1       -0.0200
     40 C          62.2477   90.9568    9.9655 C.2     1  UNL1       -0.0133
     41 C          63.3347   91.2751   10.9491 C.3     1  UNL1        0.1194
     42 BR         64.5691   91.9964   10.4952 Br      1  UNL1       -0.0705
     43 C          63.1873   90.8720   12.3863 C.2     1  UNL1        0.1032
     44 N          64.0846   91.0482   13.5753 N.am    1  UNL1       -0.1422
     45 C          63.4049   90.4359   14.7640 C.2     1  UNL1        0.4298
     46 O          63.9473   90.3869   16.1616 O.2     1  UNL1       -0.2238
     47 O          62.0874   89.8812   14.3096 O.3     1  UNL1       -0.4078
     48 C          61.9529   90.1507   12.8401 C.2     1  UNL1        0.1621
     49 C          60.8659   89.8324   11.8567 C.2     1  UNL1        0.0342
@<TRIPOS>BOND
     1     2     3    2
     2     3     4   am
     3     4     1    1
     4     1    38    1
     5    38    39    1
     6    39    40    2
     7    40    41    1
     8    41    42    1
     9    41    43    1
    10    43    44    2
    11    44    45    1
    12    45    46    2
    13    45    47    1
    14    47    48    1
    15    48    49    2
    16     1    24    1
    17    24    25    2
    18    24    26   am
    19    26    27    1
    20    27    28    1
    21    28    29    1
    22    29    32    1
    23    32    33    1
    24    33    34    1
    25    34    35    1
    26    35    36    1
    27    36    37    1
    28    29    30    1
    29    30    31    1
    30     3     5   am
    31     5     6    1
    32     6     7    1
    33     7     8    1
    34     8    12    1
    35    12    13    1
    36    13    14    1
    37    14    15   ar
    38    15    16   ar
    39    16    17   ar
    40    17    18   ar
    41    18    19   ar
    42    19    20    1
    43    20    21   am
    44    21    22    2
    45     8     9    1
    46     9    10    1
    47    49    39    1
    48    31    26    1
    49    10     5    1
    50    48    43    1
    51    37    32    1
    52    21    12   am
    53    19    14   ar
    54     4    11    1
    55    20    23    1
@<TRIPOS>MOLECULE
*****
 49 55 0 0 0
SMALL
GASTEIGER

@<TRIPOS>ATOM
      1 C          60.5332   89.2140    8.4469 C.3     1  UNL1        0.1543
      2 O          58.2558   90.1634    6.7404 O.2     1  UNL1       -0.2526
      3 C          59.6698   90.4582    6.3359 C.2     1  UNL1        0.3043
      4 N          60.8085   89.9835    7.1892 N.am    1  UNL1       -0.2822
      5 N          59.9451   91.2277    5.0781 N.am    1  UNL1       -0.2641
      6 C          58.8064   91.7024    4.2249 C.3     1  UNL1        0.0966
      7 C          59.0818   92.4719    2.9670 C.3     1  UNL1        0.0415
      8 C          60.4958   92.7667    2.5625 C.3     1  UNL1        0.0806
      9 C          61.6345   92.2920    3.4158 C.3     1  UNL1        0.0415
     10 C          61.3592   91.5225    4.6735 C.3     1  UNL1        0.0966
     11 H          61.7366   90.1770    6.9236 H       1  UNL1        0.1514
     12 N          60.7711   93.5362    1.3047 N.am    1  UNL1       -0.2613
     13 C          61.2992   92.8279    0.0926 C.3     1  UNL1        0.1228
     14 C          61.5745   93.5975   -1.1653 C.ar    1  UNL1        0.0112
     15 C          62.1026   92.8891   -2.3774 C.ar    1  UNL1       -0.0014
     16 C          62.3779   93.6586   -3.6352 C.ar    1  UNL1       -0.0002
     17 C          62.1251   95.1365   -3.6809 C.ar    1  UNL1        0.0013
     18 C          61.5969   95.8448   -2.4687 C.ar    1  UNL1        0.0144
     19 C          61.3217   95.0753   -1.2109 C.ar    1  UNL1        0.0492
     20 N          60.7935   95.7836    0.0013 N.am    1  UNL1       -0.2684
     21 C          60.5182   95.0141    1.2591 C.2     1  UNL1        0.3079
     22 O          59.9901   95.7224    2.4713 O.2     1  UNL1       -0.2522
     23 H          60.6276   96.7535   -0.0286 H       1  UNL1        0.1564
     24 C          60.4385   87.7176    8.4051 C.2     1  UNL1        0.2439
     25 O          59.6545   87.0458    7.3169 O.2     1  UNL1       -0.2731
     26 N          61.1276   86.8929    9.4515 N.am    1  UNL1       -0.2781
     27 C          61.9114   87.5647   10.5397 C.3     1  UNL1        0.0948
     28 C          62.6006   86.7400   11.5862 C.3     1  UNL1        0.0375
     29 C          62.5058   85.2436   11.5444 C.3     1  UNL1        0.0609
     30 C          61.7219   84.5718   10.4562 C.3     1  UNL1        0.0375
     31 C          61.0328   85.3965    9.4098 C.3     1  UNL1        0.0948
     32 N          63.1949   84.4189   12.5908 N.3     1  UNL1       -0.2738
     33 C          63.8912   85.0909   13.7369 C.3     1  UNL1        0.0720
     34 C          64.5804   84.2663   14.7834 C.3     1  UNL1        0.0174
     35 C          64.5732   82.7696   14.6837 C.3     1  UNL1        0.0029
     36 C          63.8769   82.0976   13.5376 C.3     1  UNL1        0.0174
     37 C          63.1878   82.9223   12.4912 C.3     1  UNL1        0.0720
     38 C          60.3527   89.9409    9.7466 C.3     1  UNL1        0.0552
     39 C          61.5520   90.3813   10.5325 C.2     1  UNL1       -0.0200
     40 C          61.6929   89.9832   11.9719 C.2     1  UNL1       -0.0133
     41 C          62.8923   90.4236   12.7578 C.3     1  UNL1        0.1194
     42 BR         63.0333   90.0256   14.1972 Br      1  UNL1       -0.0705
     43 C          63.9507   91.2620   12.1044 C.2     1  UNL1        0.1032
     44 N          65.2339   91.8412   12.6220 N.am    1  UNL1       -0.1422
     45 C          65.8861   92.5971   11.5025 C.2     1  UNL1        0.4298
     46 O          67.1896   93.3354   11.5790 O.2     1  UNL1       -0.2238
     47 O          65.0059   92.4852   10.2931 O.3     1  UNL1       -0.4078
     48 C          63.8097   91.6600   10.6651 C.2     1  UNL1        0.1621
     49 C          62.6104   91.2197    9.8791 C.2     1  UNL1        0.0342
@<TRIPOS>BOND
     1     2     3    2
     2     3     4   am
     3     4     1    1
     4     1    38    1
     5    38    39    1
     6    39    40    2
     7    40    41    1
     8    41    42    1
     9    41    43    1
    10    43    44    2
    11    44    45    1
    12    45    46    2
    13    45    47    1
    14    47    48    1
    15    48    49    2
    16     1    24    1
    17    24    25    2
    18    24    26   am
    19    26    27    1
    20    27    28    1
    21    28    29    1
    22    29    32    1
    23    32    33    1
    24    33    34    1
    25    34    35    1
    26    35    36    1
    27    36    37    1
    28    29    30    1
    29    30    31    1
    30     3     5   am
    31     5     6    1
    32     6     7    1
    33     7     8    1
    34     8    12    1
    35    12    13    1
    36    13    14    1
    37    14    15   ar
    38    15    16   ar
    39    16    17   ar
    40    17    18   ar
    41    18    19   ar
    42    19    20    1
    43    20    21   am
    44    21    22    2
    45     8     9    1
    46     9    10    1
    47    49    39    1
    48    31    26    1
    49    10     5    1
    50    48    43    1
    51    37    32    1
    52    21    12   am
    53    19    14   ar
    54     4    11    1
    55    20    23    1
@<TRIPOS>MOLECULE
*****
 49 55 0 0 0
SMALL
GASTEIGER

@<TRIPOS>ATOM
      1 C          59.9554   88.9740    8.5354 C.3     1  UNL1        0.1543
      2 O          57.8219   90.0310    6.7103 O.2     1  UNL1       -0.2526
      3 C          59.2663   90.3076    6.4149 C.2     1  UNL1        0.3043
      4 N          60.3330   89.7791    7.3275 N.am    1  UNL1       -0.2822
      5 N          59.6439   91.1126    5.2069 N.am    1  UNL1       -0.2641
      6 C          58.5771   91.6411    4.2944 C.3     1  UNL1        0.0966
      7 C          58.9548   92.4463    3.0864 C.3     1  UNL1        0.0415
      8 C          60.3991   92.7229    2.7910 C.3     1  UNL1        0.0806
      9 C          61.4659   92.1944    3.7035 C.3     1  UNL1        0.0415
     10 C          61.0883   91.3893    4.9115 C.3     1  UNL1        0.0966
     11 H          61.2810   89.9606    7.1336 H       1  UNL1        0.1514
     12 N          60.7767   93.5279    1.5830 N.am    1  UNL1       -0.2613
     13 C          61.3655   92.8480    0.3826 C.3     1  UNL1        0.1228
     14 C          61.7431   93.6532   -0.8254 C.ar    1  UNL1        0.0112
     15 C          62.3319   92.9733   -2.0259 C.ar    1  UNL1       -0.0014
     16 C          62.7095   93.7783   -3.2338 C.ar    1  UNL1       -0.0002
     17 C          62.4983   95.2634   -3.2414 C.ar    1  UNL1        0.0013
     18 C          61.9095   95.9434   -2.0410 C.ar    1  UNL1        0.0144
     19 C          61.5319   95.1382   -0.8330 C.ar    1  UNL1        0.0492
     20 N          60.9431   95.8181    0.3675 N.am    1  UNL1       -0.2684
     21 C          60.5655   95.0130    1.5754 C.2     1  UNL1        0.3079
     22 O          59.9768   95.6930    2.7759 O.2     1  UNL1       -0.2522
     23 H          60.8045   96.7928    0.3625 H       1  UNL1        0.1564
     24 C          59.8977   89.6276    9.8843 C.2     1  UNL1        0.2439
     25 O          58.5763   89.8241   10.5666 O.2     1  UNL1       -0.2731
     26 N          61.1612   90.0847   10.5509 N.am    1  UNL1       -0.2781
     27 C          62.4825   89.8882    9.8687 C.3     1  UNL1        0.0948
     28 C          63.7462   90.3453   10.5353 C.3     1  UNL1        0.0375
     29 C          63.6885   90.9989   11.8842 C.3     1  UNL1        0.0609
     30 C          62.3671   91.1954   12.5664 C.3     1  UNL1        0.0375
     31 C          61.1035   90.7383   11.8998 C.3     1  UNL1        0.0948
     32 N          64.9520   91.4560   12.5508 N.3     1  UNL1       -0.2738
     33 C          65.3004   90.9553   13.9212 C.3     1  UNL1        0.0720
     34 C          66.5640   91.4124   14.5879 C.3     1  UNL1        0.0174
     35 C          67.4792   92.3701   13.8841 C.3     1  UNL1        0.0029
     36 C          67.1307   92.8708   12.5137 C.3     1  UNL1        0.0174
     37 C          65.8672   92.4137   11.8471 C.3     1  UNL1        0.0720
     38 C          59.6355   87.5152    8.3945 C.3     1  UNL1        0.0552
     39 C          60.7214   86.4914    8.5444 C.2     1  UNL1       -0.0200
     40 C          61.3128   85.8419    7.3285 C.2     1  UNL1       -0.0133
     41 C          62.3988   84.8180    7.4783 C.3     1  UNL1        0.1194
     42 BR         62.9901   84.1684    6.2624 Br      1  UNL1       -0.0705
     43 C          62.8933   84.4437    8.8441 C.2     1  UNL1        0.1032
     44 N          63.9439   83.4753    9.3006 N.am    1  UNL1       -0.1422
     45 C          64.0019   83.5263   10.7986 C.2     1  UNL1        0.4298
     46 O          64.9145   82.7190   11.6736 O.2     1  UNL1       -0.2238
     47 O          62.9872   84.5262   11.2679 O.3     1  UNL1       -0.4078
     48 C          62.3020   85.0933   10.0600 C.2     1  UNL1        0.1621
     49 C          61.2161   86.1171    9.9101 C.2     1  UNL1        0.0342
@<TRIPOS>BOND
     1     2     3    2
     2     3     4   am
     3     4     1    1
     4     1    38    1
     5    38    39    1
     6    39    40    2
     7    40    41    1
     8    41    42    1
     9    41    43    1
    10    43    44    2
    11    44    45    1
    12    45    46    2
    13    45    47    1
    14    47    48    1
    15    48    49    2
    16     1    24    1
    17    24    25    2
    18    24    26   am
    19    26    27    1
    20    27    28    1
    21    28    29    1
    22    29    32    1
    23    32    33    1
    24    33    34    1
    25    34    35    1
    26    35    36    1
    27    36    37    1
    28    29    30    1
    29    30    31    1
    30     3     5   am
    31     5     6    1
    32     6     7    1
    33     7     8    1
    34     8    12    1
    35    12    13    1
    36    13    14    1
    37    14    15   ar
    38    15    16   ar
    39    16    17   ar
    40    17    18   ar
    41    18    19   ar
    42    19    20    1
    43    20    21   am
    44    21    22    2
    45     8     9    1
    46     9    10    1
    47    49    39    1
    48    31    26    1
    49    10     5    1
    50    48    43    1
    51    37    32    1
    52    21    12   am
    53    19    14   ar
    54     4    11    1
    55    20    23    1
@<TRIPOS>MOLECULE
*****
 49 55 0 0 0
SMALL
GASTEIGER

@<TRIPOS>ATOM
      1 C          60.0494   89.2943    7.6200 C.3     1  UNL1        0.1543
      2 O          58.3989   91.0699    5.8528 O.2     1  UNL1       -0.2526
      3 C          59.8544   90.8608    5.5566 C.2     1  UNL1        0.3043
      4 N          60.6796   89.9731    6.4402 N.am    1  UNL1       -0.2822
      5 N          60.4846   91.5396    4.3767 N.am    1  UNL1       -0.2641
      6 C          59.6593   92.4274    3.4931 C.3     1  UNL1        0.0966
      7 C          60.2896   93.1061    2.3132 C.3     1  UNL1        0.0415
      8 C          61.7451   92.8971    2.0170 C.3     1  UNL1        0.0806
      9 C          62.5704   92.0093    2.9006 C.3     1  UNL1        0.0415
     10 C          61.9402   91.3306    4.0805 C.3     1  UNL1        0.0966
     11 H          61.6349   89.8359    6.2458 H       1  UNL1        0.1514
     12 N          62.3754   93.5758    0.8372 N.am    1  UNL1       -0.2613
     13 C          63.5380   94.5022    1.0376 C.3     1  UNL1        0.1228
     14 C          64.1682   95.1810   -0.1423 C.ar    1  UNL1        0.0112
     15 C          65.3308   96.1073    0.0581 C.ar    1  UNL1       -0.0014
     16 C          65.9610   96.7861   -1.1217 C.ar    1  UNL1       -0.0002
     17 C          65.4286   96.5385   -2.5021 C.ar    1  UNL1        0.0013
     18 C          64.2660   95.6121   -2.7025 C.ar    1  UNL1        0.0144
     19 C          63.6358   94.9333   -1.5226 C.ar    1  UNL1        0.0492
     20 N          62.4732   94.0070   -1.7230 N.am    1  UNL1       -0.2684
     21 C          61.8430   93.3282   -0.5432 C.2     1  UNL1        0.3079
     22 O          60.6804   92.4019   -0.7436 O.2     1  UNL1       -0.2522
     23 H          62.1238   93.8445   -2.6290 H       1  UNL1        0.1564
     24 C          59.9663   87.7974    7.6680 C.2     1  UNL1        0.2439
     25 O          59.1041   87.0622    6.6850 O.2     1  UNL1       -0.2731
     26 N          60.7453   87.0356    8.6989 N.am    1  UNL1       -0.2781
     27 C          61.6075   87.7708    9.6818 C.3     1  UNL1        0.0948
     28 C          62.3866   87.0090   10.7128 C.3     1  UNL1        0.0375
     29 C          62.3034   85.5121   10.7607 C.3     1  UNL1        0.0609
     30 C          61.4412   84.7769    9.7777 C.3     1  UNL1        0.0375
     31 C          60.6622   85.5387    8.7468 C.3     1  UNL1        0.0948
     32 N          63.0825   84.7503   11.7916 N.3     1  UNL1       -0.2738
     33 C          63.3722   83.2929   11.5869 C.3     1  UNL1        0.0720
     34 C          64.1513   82.5310   12.6178 C.3     1  UNL1        0.0174
     35 C          64.6406   83.2266   13.8534 C.3     1  UNL1        0.0029
     36 C          64.3508   84.6841   14.0581 C.3     1  UNL1        0.0174
     37 C          63.5718   85.4459   13.0272 C.3     1  UNL1        0.0720
     38 C          59.5023   90.1125    8.7520 C.3     1  UNL1        0.0552
     39 C          60.1678   90.0736   10.0957 C.2     1  UNL1       -0.0200
     40 C          59.4171   89.5633   11.2899 C.2     1  UNL1       -0.0133
     41 C          60.0827   89.5244   12.6337 C.3     1  UNL1        0.1194
     42 BR         59.3321   89.0141   13.8279 Br      1  UNL1       -0.0705
     43 C          61.4988   89.9957   12.7831 C.2     1  UNL1        0.1032
     44 N          62.4100   90.0754   13.9721 N.am    1  UNL1       -0.1422
     45 C          63.7237   90.6350   13.5127 C.2     1  UNL1        0.4298
     46 O          64.9255   90.8846   14.3748 O.2     1  UNL1       -0.2238
     47 O          63.6245   90.9010   12.0398 O.3     1  UNL1       -0.4078
     48 C          62.2495   90.5059   11.5889 C.2     1  UNL1        0.1621
     49 C          61.5840   90.5449   10.2452 C.2     1  UNL1        0.0342
@<TRIPOS>BOND
     1     2     3    2
     2     3     4   am
     3     4     1    1
     4     1    38    1
     5    38    39    1
     6    39    40    2
     7    40    41    1
     8    41    42    1
     9    41    43    1
    10    43    44    2
    11    44    45    1
    12    45    46    2
    13    45    47    1
    14    47    48    1
    15    48    49    2
    16     1    24    1
    17    24    25    2
    18    24    26   am
    19    26    27    1
    20    27    28    1
    21    28    29    1
    22    29    32    1
    23    32    33    1
    24    33    34    1
    25    34    35    1
    26    35    36    1
    27    36    37    1
    28    29    30    1
    29    30    31    1
    30     3     5   am
    31     5     6    1
    32     6     7    1
    33     7     8    1
    34     8    12    1
    35    12    13    1
    36    13    14    1
    37    14    15   ar
    38    15    16   ar
    39    16    17   ar
    40    17    18   ar
    41    18    19   ar
    42    19    20    1
    43    20    21   am
    44    21    22    2
    45     8     9    1
    46     9    10    1
    47    49    39    1
    48    31    26    1
    49    10     5    1
    50    48    43    1
    51    37    32    1
    52    21    12   am
    53    19    14   ar
    54     4    11    1
    55    20    23    1
