@<TRIPOS>MOLECULE
*****
 32 35 0 0 0
SMALL
GASTEIGER

@<TRIPOS>ATOM
      1 C          63.1586   84.4336   10.2443 C.ar    1  UNL1       -0.0062
      2 C          63.0726   85.0809    8.8939 C.ar    1  UNL1       -0.0031
      3 C          62.1681   86.2588    8.6830 C.ar    1  UNL1       -0.0010
      4 C          61.3497   86.7894    9.8226 C.ar    1  UNL1        0.0211
      5 C          61.4357   86.1421   11.1730 C.ar    1  UNL1       -0.0010
      6 C          62.3401   84.9643   11.3838 C.ar    1  UNL1       -0.0031
      7 C          64.0631   83.2557   10.4552 C.3     1  UNL1        0.0994
      8 C          62.7676   81.2170   11.4119 C.3     1  UNL1        0.0902
      9 N          63.7960   82.2964   11.5769 N.3     1  UNL1       -0.2639
     10 C          64.5574   82.4164   12.8637 C.3     1  UNL1        0.0994
     11 C          64.1324   83.4183   13.8960 C.ar    1  UNL1       -0.0061
     12 C          64.9894   84.6173   14.1751 C.ar    1  UNL1       -0.0029
     13 C          64.5643   85.6191   15.2074 C.ar    1  UNL1       -0.0003
     14 C          63.2823   85.4220   15.9606 C.ar    1  UNL1       -0.0000
     15 C          62.4252   84.2230   15.6815 C.ar    1  UNL1       -0.0003
     16 C          62.8502   83.2212   14.6493 C.ar    1  UNL1       -0.0029
     17 C          60.4452   87.9674    9.6117 C.3     1  UNL1        0.2320
     18 O          61.0285   89.3356    9.4179 O.3     1  UNL1       -0.4705
     19 C          61.9662   89.9031   10.4420 C.ar    1  UNL1        0.1421
     20 C          63.0452   90.8574   10.0236 C.ar    1  UNL1        0.0371
     21 C          63.9829   91.4249   11.0477 C.ar    1  UNL1        0.0059
     22 C          63.8415   91.0381   12.4901 C.ar    1  UNL1        0.0335
     23 C          64.7793   91.6056   13.5141 C.ar    1  UNL1        0.0163
     24 C          64.6379   91.2188   14.9565 C.ar    1  UNL1        0.0805
     25 C          63.5589   90.2644   15.3748 C.ar    1  UNL1        0.3457
     26 O          63.4175   89.8776   16.8171 O.2     1  UNL1       -0.2445
     27 O          62.6212   89.6970   14.3507 O.2     1  UNL1       -0.4209
     28 C          62.7625   90.0838   12.9084 C.ar    1  UNL1        0.1515
     29 C          61.8249   89.5163   11.8843 C.ar    1  UNL1        0.0745
     30 C          65.8583   92.5599   13.0958 C.3     1  UNL1        0.1639
     31 O          66.0714   93.8329   13.8602 O.3     1  UNL1       -0.3772
     32 H          65.2969   94.4071   13.7544 H       1  UNL1        0.2109
@<TRIPOS>BOND
     1     8     9    1
     2     9    10    1
     3    10    11    1
     4    11    12   ar
     5    12    13   ar
     6    13    14   ar
     7    14    15   ar
     8    15    16   ar
     9     9     7    1
    10     7     1    1
    11     1     2   ar
    12     2     3   ar
    13     3     4   ar
    14     4    17    1
    15    17    18    1
    16    18    19    1
    17    19    20   ar
    18    20    21   ar
    19    21    22   ar
    20    22    23   ar
    21    23    30    1
    22    30    31    1
    23    23    24   ar
    24    24    25   ar
    25    25    26    2
    26    25    27   ar
    27    27    28   ar
    28    28    29   ar
    29     4     5   ar
    30     5     6   ar
    31    16    11   ar
    32     6     1   ar
    33    29    19   ar
    34    28    22   ar
    35    31    32    1
@<TRIPOS>MOLECULE
*****
 32 35 0 0 0
SMALL
GASTEIGER

@<TRIPOS>ATOM
      1 C          63.1745   84.3156   10.2222 C.ar    1  UNL1       -0.0062
      2 C          62.3688   84.8559   11.3662 C.ar    1  UNL1       -0.0031
      3 C          61.5236   86.0804   11.1760 C.ar    1  UNL1       -0.0010
      4 C          61.4840   86.7646    9.8417 C.ar    1  UNL1        0.0211
      5 C          62.2897   86.2243    8.6977 C.ar    1  UNL1       -0.0010
      6 C          63.1349   84.9998    8.8879 C.ar    1  UNL1       -0.0031
      7 C          64.0197   83.0911   10.4124 C.3     1  UNL1        0.0994
      8 C          62.7609   81.1214   11.5461 C.3     1  UNL1        0.0902
      9 N          63.7978   82.2038   11.6012 N.3     1  UNL1       -0.2639
     10 C          64.6128   82.3990   12.8453 C.3     1  UNL1        0.0994
     11 C          64.1871   83.4080   13.8702 C.ar    1  UNL1       -0.0061
     12 C          65.0459   84.6069   14.1444 C.ar    1  UNL1       -0.0029
     13 C          64.6201   85.6159   15.1694 C.ar    1  UNL1       -0.0003
     14 C          63.3355   85.4261   15.9201 C.ar    1  UNL1       -0.0000
     15 C          62.4767   84.2273   15.6460 C.ar    1  UNL1       -0.0003
     16 C          62.9024   83.2182   14.6211 C.ar    1  UNL1       -0.0029
     17 C          60.6388   87.9891    9.6516 C.3     1  UNL1        0.2320
     18 O          61.2887   89.3179    9.4031 O.3     1  UNL1       -0.4705
     19 C          62.2058   89.9086   10.4328 C.ar    1  UNL1        0.1421
     20 C          62.1728   89.4031   11.8446 C.ar    1  UNL1        0.0371
     21 C          63.0899   89.9937   12.8742 C.ar    1  UNL1        0.0059
     22 C          64.0398   91.0899   12.4920 C.ar    1  UNL1        0.0335
     23 C          64.9569   91.6805   13.5217 C.ar    1  UNL1        0.0163
     24 C          65.9068   92.7766   13.1395 C.ar    1  UNL1        0.0805
     25 C          65.9397   93.2821   11.7276 C.ar    1  UNL1        0.3457
     26 O          66.8897   94.3782   11.3453 O.2     1  UNL1       -0.2445
     27 O          65.0227   92.6915   10.6979 O.2     1  UNL1       -0.4209
     28 C          64.0728   91.5953   11.0802 C.ar    1  UNL1        0.1515
     29 C          63.1557   91.0047   10.0506 C.ar    1  UNL1        0.0745
     30 C          64.9239   91.1750   14.9336 C.3     1  UNL1        0.1639
     31 O          63.8412   91.6285   15.8675 O.3     1  UNL1       -0.3772
     32 H          63.9378   92.5786   16.0375 H       1  UNL1        0.2109
@<TRIPOS>BOND
     1     8     9    1
     2     9    10    1
     3    10    11    1
     4    11    12   ar
     5    12    13   ar
     6    13    14   ar
     7    14    15   ar
     8    15    16   ar
     9     9     7    1
    10     7     1    1
    11     1     2   ar
    12     2     3   ar
    13     3     4   ar
    14     4    17    1
    15    17    18    1
    16    18    19    1
    17    19    20   ar
    18    20    21   ar
    19    21    22   ar
    20    22    23   ar
    21    23    30    1
    22    30    31    1
    23    23    24   ar
    24    24    25   ar
    25    25    26    2
    26    25    27   ar
    27    27    28   ar
    28    28    29   ar
    29     4     5   ar
    30     5     6   ar
    31    16    11   ar
    32     6     1   ar
    33    29    19   ar
    34    28    22   ar
    35    31    32    1
@<TRIPOS>MOLECULE
*****
 32 35 0 0 0
SMALL
GASTEIGER

@<TRIPOS>ATOM
      1 C          63.1699   84.2835   10.2587 C.ar    1  UNL1       -0.0062
      2 C          62.3959   84.7841   11.4420 C.ar    1  UNL1       -0.0031
      3 C          61.5718   86.0320   11.3256 C.ar    1  UNL1       -0.0010
      4 C          61.5218   86.7793   10.0260 C.ar    1  UNL1        0.0211
      5 C          62.2958   86.2787    8.8427 C.ar    1  UNL1       -0.0010
      6 C          63.1199   85.0308    8.9591 C.ar    1  UNL1       -0.0031
      7 C          63.9940   83.0355   10.3750 C.3     1  UNL1        0.0994
      8 C          62.7668   81.0038   11.4314 C.3     1  UNL1        0.0902
      9 N          63.7832   82.1025   11.5304 N.3     1  UNL1       -0.2639
     10 C          64.5888   82.2682   12.7848 C.3     1  UNL1        0.0994
     11 C          64.1809   83.2849   13.8094 C.ar    1  UNL1       -0.0061
     12 C          65.0287   84.5010   14.0382 C.ar    1  UNL1       -0.0029
     13 C          64.6207   85.5178   15.0628 C.ar    1  UNL1       -0.0003
     14 C          63.3649   85.3185   15.8585 C.ar    1  UNL1       -0.0000
     15 C          62.5170   84.1025   15.6296 C.ar    1  UNL1       -0.0003
     16 C          62.9250   83.0857   14.6051 C.ar    1  UNL1       -0.0029
     17 C          60.6977   88.0273    9.9097 C.3     1  UNL1        0.2320
     18 O          60.7257   89.0495   11.0070 O.3     1  UNL1       -0.4705
     19 C          61.9320   89.9225   11.1883 C.ar    1  UNL1        0.1421
     20 C          62.4679   90.7111   10.0304 C.ar    1  UNL1        0.0371
     21 C          63.6742   91.5840   10.2117 C.ar    1  UNL1        0.0059
     22 C          64.3446   91.6682   11.5509 C.ar    1  UNL1        0.0335
     23 C          65.5509   92.5412   11.7322 C.ar    1  UNL1        0.0163
     24 C          66.2213   92.6254   13.0714 C.ar    1  UNL1        0.0805
     25 C          65.6854   91.8367   14.2293 C.ar    1  UNL1        0.3457
     26 O          66.3558   91.9209   15.5685 O.2     1  UNL1       -0.2445
     27 O          64.4791   90.9638   14.0480 O.2     1  UNL1       -0.4209
     28 C          63.8087   90.8796   12.7088 C.ar    1  UNL1        0.1515
     29 C          62.6024   90.0067   12.5275 C.ar    1  UNL1        0.0745
     30 C          66.0868   93.3298   10.5743 C.3     1  UNL1        0.1639
     31 O          67.1002   94.4109   10.8080 O.3     1  UNL1       -0.3772
     32 H          66.6952   95.1286   11.3196 H       1  UNL1        0.2109
@<TRIPOS>BOND
     1     8     9    1
     2     9    10    1
     3    10    11    1
     4    11    12   ar
     5    12    13   ar
     6    13    14   ar
     7    14    15   ar
     8    15    16   ar
     9     9     7    1
    10     7     1    1
    11     1     2   ar
    12     2     3   ar
    13     3     4   ar
    14     4    17    1
    15    17    18    1
    16    18    19    1
    17    19    20   ar
    18    20    21   ar
    19    21    22   ar
    20    22    23   ar
    21    23    30    1
    22    30    31    1
    23    23    24   ar
    24    24    25   ar
    25    25    26    2
    26    25    27   ar
    27    27    28   ar
    28    28    29   ar
    29     4     5   ar
    30     5     6   ar
    31    16    11   ar
    32     6     1   ar
    33    29    19   ar
    34    28    22   ar
    35    31    32    1
@<TRIPOS>MOLECULE
*****
 32 35 0 0 0
SMALL
GASTEIGER

@<TRIPOS>ATOM
      1 C          63.9060   83.9353   14.7227 C.ar    1  UNL1       -0.0062
      2 C          64.7956   85.1236   14.5073 C.ar    1  UNL1       -0.0031
      3 C          64.5233   86.4061   15.2359 C.ar    1  UNL1       -0.0010
      4 C          63.3614   86.5003   16.1800 C.ar    1  UNL1        0.0211
      5 C          62.4718   85.3120   16.3954 C.ar    1  UNL1       -0.0010
      6 C          62.7441   84.0295   15.6668 C.ar    1  UNL1       -0.0031
      7 C          64.1782   82.6527   13.9941 C.3     1  UNL1        0.0994
      8 C          62.2453   81.5014   12.6949 C.3     1  UNL1        0.0902
      9 N          63.4749   82.3603   12.7019 N.3     1  UNL1       -0.2639
     10 C          64.0013   82.9270   11.4166 C.3     1  UNL1        0.0994
     11 C          63.3003   84.0808   10.7629 C.ar    1  UNL1       -0.0061
     12 C          63.4727   84.3280    9.2935 C.ar    1  UNL1       -0.0029
     13 C          62.7717   85.4818    8.6398 C.ar    1  UNL1       -0.0003
     14 C          61.8983   86.3884    9.4555 C.ar    1  UNL1       -0.0000
     15 C          61.7260   86.1411   10.9249 C.ar    1  UNL1       -0.0003
     16 C          62.4269   84.9874   11.5786 C.ar    1  UNL1       -0.0029
     17 C          63.0892   87.7830   16.9086 C.3     1  UNL1        0.2320
     18 O          62.4132   88.9191   16.2001 O.3     1  UNL1       -0.4705
     19 C          63.1951   89.7888   15.2608 C.ar    1  UNL1        0.1421
     20 C          62.8854   89.7759   13.7932 C.ar    1  UNL1        0.0371
     21 C          63.6674   90.6456   12.8540 C.ar    1  UNL1        0.0059
     22 C          64.7590   91.5283   13.3824 C.ar    1  UNL1        0.0335
     23 C          65.5410   92.3980   12.4431 C.ar    1  UNL1        0.0163
     24 C          66.6326   93.2807   12.9716 C.ar    1  UNL1        0.0805
     25 C          66.9423   93.2936   14.4392 C.ar    1  UNL1        0.3457
     26 O          68.0339   94.1763   14.9676 O.2     1  UNL1       -0.2445
     27 O          66.1603   92.4239   15.3784 O.2     1  UNL1       -0.4209
     28 C          65.0687   91.5412   14.8500 C.ar    1  UNL1        0.1515
     29 C          64.2868   90.6715   15.7892 C.ar    1  UNL1        0.0745
     30 C          65.2313   92.3850   10.9756 C.3     1  UNL1        0.1639
     31 O          65.3914   93.6365   10.1641 O.3     1  UNL1       -0.3772
     32 H          64.7470   94.2984   10.4601 H       1  UNL1        0.2109
@<TRIPOS>BOND
     1     8     9    1
     2     9    10    1
     3    10    11    1
     4    11    12   ar
     5    12    13   ar
     6    13    14   ar
     7    14    15   ar
     8    15    16   ar
     9     9     7    1
    10     7     1    1
    11     1     2   ar
    12     2     3   ar
    13     3     4   ar
    14     4    17    1
    15    17    18    1
    16    18    19    1
    17    19    20   ar
    18    20    21   ar
    19    21    22   ar
    20    22    23   ar
    21    23    30    1
    22    30    31    1
    23    23    24   ar
    24    24    25   ar
    25    25    26    2
    26    25    27   ar
    27    27    28   ar
    28    28    29   ar
    29     4     5   ar
    30     5     6   ar
    31    16    11   ar
    32     6     1   ar
    33    29    19   ar
    34    28    22   ar
    35    31    32    1
@<TRIPOS>MOLECULE
*****
 32 35 0 0 0
SMALL
GASTEIGER

@<TRIPOS>ATOM
      1 C          64.5235   91.6604   12.1535 C.ar    1  UNL1       -0.0062
      2 C          63.8048   90.5970   12.9297 C.ar    1  UNL1       -0.0031
      3 C          62.6892   89.8256   12.2892 C.ar    1  UNL1       -0.0010
      4 C          62.2923   90.1176   10.8725 C.ar    1  UNL1        0.0211
      5 C          63.0111   91.1809   10.0962 C.ar    1  UNL1       -0.0010
      6 C          64.1267   91.9523   10.7367 C.ar    1  UNL1       -0.0031
      7 C          65.6392   92.4318   12.7940 C.3     1  UNL1        0.0994
      8 C          68.1728   91.9609   13.1239 C.3     1  UNL1        0.0902
      9 N          67.0282   92.3461   12.2343 N.3     1  UNL1       -0.2639
     10 C          67.2726   92.6455   10.7849 C.3     1  UNL1        0.0994
     11 C          67.1294   94.0486   10.2744 C.ar    1  UNL1       -0.0061
     12 C          66.4567   95.0893   11.1197 C.ar    1  UNL1       -0.0029
     13 C          66.3136   96.4925   10.6092 C.ar    1  UNL1       -0.0003
     14 C          66.8430   96.8550    9.2534 C.ar    1  UNL1       -0.0000
     15 C          67.5157   95.8143    8.4081 C.ar    1  UNL1       -0.0003
     16 C          67.6589   94.4112    8.9186 C.ar    1  UNL1       -0.0029
     17 C          61.1766   89.3462   10.2319 C.3     1  UNL1        0.2320
     18 O          61.4871   88.2176    9.2939 O.3     1  UNL1       -0.4705
     19 C          61.9738   86.9056    9.8341 C.ar    1  UNL1        0.1421
     20 C          62.5573   85.8823    8.9055 C.ar    1  UNL1        0.0371
     21 C          63.0440   84.5704    9.4457 C.ar    1  UNL1        0.0059
     22 C          62.9472   84.2817   10.9145 C.ar    1  UNL1        0.0335
     23 C          63.4339   82.9696   11.4546 C.ar    1  UNL1        0.0163
     24 C          63.3370   82.6810   12.9234 C.ar    1  UNL1        0.0805
     25 C          62.7534   83.7044   13.8520 C.ar    1  UNL1        0.3457
     26 O          62.6566   83.4157   15.3208 O.2     1  UNL1       -0.2445
     27 O          62.2667   85.0163   13.3118 O.2     1  UNL1       -0.4209
     28 C          62.3636   85.3050   11.8430 C.ar    1  UNL1        0.1515
     29 C          61.8769   86.6169   11.3028 C.ar    1  UNL1        0.0745
     30 C          64.0174   81.9464   10.5261 C.3     1  UNL1        0.1639
     31 O          63.1897   80.7760   10.0841 O.3     1  UNL1       -0.3772
     32 H          62.9958   80.2103   10.8478 H       1  UNL1        0.2109
@<TRIPOS>BOND
     1     8     9    1
     2     9    10    1
     3    10    11    1
     4    11    12   ar
     5    12    13   ar
     6    13    14   ar
     7    14    15   ar
     8    15    16   ar
     9     9     7    1
    10     7     1    1
    11     1     2   ar
    12     2     3   ar
    13     3     4   ar
    14     4    17    1
    15    17    18    1
    16    18    19    1
    17    19    20   ar
    18    20    21   ar
    19    21    22   ar
    20    22    23   ar
    21    23    30    1
    22    30    31    1
    23    23    24   ar
    24    24    25   ar
    25    25    26    2
    26    25    27   ar
    27    27    28   ar
    28    28    29   ar
    29     4     5   ar
    30     5     6   ar
    31    16    11   ar
    32     6     1   ar
    33    29    19   ar
    34    28    22   ar
    35    31    32    1
@<TRIPOS>MOLECULE
*****
 32 35 0 0 0
SMALL
GASTEIGER

@<TRIPOS>ATOM
      1 C          63.8418   84.3097   14.9280 C.ar    1  UNL1       -0.0062
      2 C          62.7034   84.3718   15.9027 C.ar    1  UNL1       -0.0031
      3 C          62.3864   85.6589   16.6046 C.ar    1  UNL1       -0.0010
      4 C          63.2077   86.8841   16.3317 C.ar    1  UNL1        0.0211
      5 C          64.3461   86.8220   15.3569 C.ar    1  UNL1       -0.0010
      6 C          64.6631   85.5348   14.6551 C.ar    1  UNL1       -0.0031
      7 C          64.1589   83.0225   14.2261 C.3     1  UNL1        0.0994
      8 C          62.2260   81.7791   13.0146 C.3     1  UNL1        0.0902
      9 N          63.4384   82.6607   12.9612 N.3     1  UNL1       -0.2639
     10 C          63.9303   83.1805   11.6429 C.3     1  UNL1        0.0994
     11 C          63.2016   84.2988   10.9586 C.ar    1  UNL1       -0.0061
     12 C          63.3409   84.4891    9.4772 C.ar    1  UNL1       -0.0029
     13 C          62.6121   85.6074    8.7929 C.ar    1  UNL1       -0.0003
     14 C          61.7441   86.5354    9.5899 C.ar    1  UNL1       -0.0000
     15 C          61.6047   86.3452   11.0712 C.ar    1  UNL1       -0.0003
     16 C          62.3335   85.2269   11.7556 C.ar    1  UNL1       -0.0029
     17 C          62.8907   88.1713   17.0336 C.3     1  UNL1        0.2320
     18 O          63.6980   89.4019   16.7443 O.3     1  UNL1       -0.4705
     19 C          63.7902   89.9259   15.3418 C.ar    1  UNL1        0.1421
     20 C          64.9569   90.7759   14.9339 C.ar    1  UNL1        0.0371
     21 C          65.0491   91.2998   13.5315 C.ar    1  UNL1        0.0059
     22 C          63.9746   90.9738   12.5369 C.ar    1  UNL1        0.0335
     23 C          64.0669   91.4979   11.1344 C.ar    1  UNL1        0.0163
     24 C          62.9924   91.1719   10.1398 C.ar    1  UNL1        0.0805
     25 C          61.8256   90.3218   10.5477 C.ar    1  UNL1        0.3457
     26 O          60.7512   89.9959    9.5531 O.2     1  UNL1       -0.2445
     27 O          61.7335   89.7979   11.9501 O.2     1  UNL1       -0.4209
     28 C          62.8079   90.1239   12.9447 C.ar    1  UNL1        0.1515
     29 C          62.7158   89.5999   14.3472 C.ar    1  UNL1        0.0745
     30 C          65.2335   92.3478   10.7265 C.3     1  UNL1        0.1639
     31 O          65.0096   93.7576   10.2654 O.3     1  UNL1       -0.3772
     32 H          64.5147   93.7502    9.4312 H       1  UNL1        0.2109
@<TRIPOS>BOND
     1     8     9    1
     2     9    10    1
     3    10    11    1
     4    11    12   ar
     5    12    13   ar
     6    13    14   ar
     7    14    15   ar
     8    15    16   ar
     9     9     7    1
    10     7     1    1
    11     1     2   ar
    12     2     3   ar
    13     3     4   ar
    14     4    17    1
    15    17    18    1
    16    18    19    1
    17    19    20   ar
    18    20    21   ar
    19    21    22   ar
    20    22    23   ar
    21    23    30    1
    22    30    31    1
    23    23    24   ar
    24    24    25   ar
    25    25    26    2
    26    25    27   ar
    27    27    28   ar
    28    28    29   ar
    29     4     5   ar
    30     5     6   ar
    31    16    11   ar
    32     6     1   ar
    33    29    19   ar
    34    28    22   ar
    35    31    32    1
@<TRIPOS>MOLECULE
*****
 32 35 0 0 0
SMALL
GASTEIGER

@<TRIPOS>ATOM
      1 C          63.0908   89.1029   11.8798 C.ar    1  UNL1       -0.0062
      2 C          63.1885   90.5984   11.8187 C.ar    1  UNL1       -0.0031
      3 C          63.8487   91.3531   12.9342 C.ar    1  UNL1       -0.0010
      4 C          64.4113   90.6122   14.1109 C.ar    1  UNL1        0.0211
      5 C          64.3137   89.1167   14.1721 C.ar    1  UNL1       -0.0010
      6 C          63.6534   88.3620   13.0565 C.ar    1  UNL1       -0.0031
      7 C          62.4305   88.3482   10.7643 C.3     1  UNL1        0.0994
      8 C          59.9526   88.4272   11.5411 C.3     1  UNL1        0.0902
      9 N          61.1201   87.6571   10.9990 N.3     1  UNL1       -0.2639
     10 C          60.9771   86.1959   10.6915 C.3     1  UNL1        0.0994
     11 C          62.1176   85.2585   10.9569 C.ar    1  UNL1       -0.0061
     12 C          62.8601   84.6373    9.8112 C.ar    1  UNL1       -0.0029
     13 C          64.0006   83.6998   10.0767 C.ar    1  UNL1       -0.0003
     14 C          64.3986   83.3837   11.4879 C.ar    1  UNL1       -0.0000
     15 C          63.6561   84.0049   12.6337 C.ar    1  UNL1       -0.0003
     16 C          62.5156   84.9423   12.3682 C.ar    1  UNL1       -0.0029
     17 C          65.0716   91.3670   15.2265 C.3     1  UNL1        0.2320
     18 O          66.3411   92.1242   14.9714 O.3     1  UNL1       -0.4705
     19 C          66.5871   92.7449   13.6281 C.ar    1  UNL1        0.1421
     20 C          66.0956   94.1328   13.3419 C.ar    1  UNL1        0.0371
     21 C          66.3416   94.7534   11.9987 C.ar    1  UNL1        0.0059
     22 C          67.0791   93.9861   10.9417 C.ar    1  UNL1        0.0335
     23 C          67.3251   94.6068    9.5984 C.ar    1  UNL1        0.0163
     24 C          68.0626   93.8394    8.5414 C.ar    1  UNL1        0.0805
     25 C          68.5542   92.4514    8.8277 C.ar    1  UNL1        0.3457
     26 O          69.2917   91.6841    7.7707 O.2     1  UNL1       -0.2445
     27 O          68.3081   91.8308   10.1709 O.2     1  UNL1       -0.4209
     28 C          67.5706   92.5981   11.2279 C.ar    1  UNL1        0.1515
     29 C          67.3246   91.9775   12.5711 C.ar    1  UNL1        0.0745
     30 C          66.8336   95.9947    9.3122 C.3     1  UNL1        0.1639
     31 O          65.3853   96.2278    8.9989 O.3     1  UNL1       -0.3772
     32 H          65.1637   95.8003    8.1569 H       1  UNL1        0.2109
@<TRIPOS>BOND
     1     8     9    1
     2     9    10    1
     3    10    11    1
     4    11    12   ar
     5    12    13   ar
     6    13    14   ar
     7    14    15   ar
     8    15    16   ar
     9     9     7    1
    10     7     1    1
    11     1     2   ar
    12     2     3   ar
    13     3     4   ar
    14     4    17    1
    15    17    18    1
    16    18    19    1
    17    19    20   ar
    18    20    21   ar
    19    21    22   ar
    20    22    23   ar
    21    23    30    1
    22    30    31    1
    23    23    24   ar
    24    24    25   ar
    25    25    26    2
    26    25    27   ar
    27    27    28   ar
    28    28    29   ar
    29     4     5   ar
    30     5     6   ar
    31    16    11   ar
    32     6     1   ar
    33    29    19   ar
    34    28    22   ar
    35    31    32    1
@<TRIPOS>MOLECULE
*****
 32 35 0 0 0
SMALL
GASTEIGER

@<TRIPOS>ATOM
      1 C          63.6231   87.0919   16.0444 C.ar    1  UNL1       -0.0062
      2 C          63.0377   88.1575   16.9229 C.ar    1  UNL1       -0.0031
      3 C          63.1738   89.6019   16.5419 C.ar    1  UNL1       -0.0010
      4 C          63.8952   89.9807   15.2825 C.ar    1  UNL1        0.0211
      5 C          64.4805   88.9150   14.4040 C.ar    1  UNL1       -0.0010
      6 C          64.3445   87.4706   14.7850 C.ar    1  UNL1       -0.0031
      7 C          63.4870   85.6474   16.4254 C.3     1  UNL1        0.0994
      8 C          64.9494   84.0976   14.9391 C.3     1  UNL1        0.0902
      9 N          63.5985   84.5813   15.3761 N.3     1  UNL1       -0.2639
     10 C          62.3591   83.9990   14.7638 C.3     1  UNL1        0.0994
     11 C          62.4653   82.8549   13.7997 C.ar    1  UNL1       -0.0061
     12 C          62.9200   83.1005   12.3915 C.ar    1  UNL1       -0.0029
     13 C          63.0261   81.9563   11.4273 C.ar    1  UNL1       -0.0003
     14 C          62.6775   80.5666   11.8713 C.ar    1  UNL1       -0.0000
     15 C          62.2228   80.3210   13.2794 C.ar    1  UNL1       -0.0003
     16 C          62.1166   81.4651   14.2436 C.ar    1  UNL1       -0.0029
     17 C          64.0312   91.4251   14.9015 C.3     1  UNL1        0.2320
     18 O          65.3833   92.0745   14.8934 O.3     1  UNL1       -0.4705
     19 C          66.0458   92.4113   13.5904 C.ar    1  UNL1        0.1421
     20 C          67.1874   91.5759   13.0916 C.ar    1  UNL1        0.0371
     21 C          67.8499   91.9127   11.7887 C.ar    1  UNL1        0.0059
     22 C          67.3707   93.0848   10.9846 C.ar    1  UNL1        0.0335
     23 C          68.0333   93.4215    9.6816 C.ar    1  UNL1        0.0163
     24 C          67.5541   94.5936    8.8774 C.ar    1  UNL1        0.0805
     25 C          66.4124   95.4289    9.3763 C.ar    1  UNL1        0.3457
     26 O          65.9332   96.6010    8.5722 O.2     1  UNL1       -0.2445
     27 O          65.7499   95.0922   10.6792 O.2     1  UNL1       -0.4209
     28 C          66.2291   93.9201   11.4834 C.ar    1  UNL1        0.1515
     29 C          65.5666   93.5833   12.7863 C.ar    1  UNL1        0.0745
     30 C          69.1749   92.5862    9.1828 C.3     1  UNL1        0.1639
     31 O          69.0282   91.7947    7.9170 O.3     1  UNL1       -0.3772
     32 H          68.3629   91.1005    8.0450 H       1  UNL1        0.2109
@<TRIPOS>BOND
     1     8     9    1
     2     9    10    1
     3    10    11    1
     4    11    12   ar
     5    12    13   ar
     6    13    14   ar
     7    14    15   ar
     8    15    16   ar
     9     9     7    1
    10     7     1    1
    11     1     2   ar
    12     2     3   ar
    13     3     4   ar
    14     4    17    1
    15    17    18    1
    16    18    19    1
    17    19    20   ar
    18    20    21   ar
    19    21    22   ar
    20    22    23   ar
    21    23    30    1
    22    30    31    1
    23    23    24   ar
    24    24    25   ar
    25    25    26    2
    26    25    27   ar
    27    27    28   ar
    28    28    29   ar
    29     4     5   ar
    30     5     6   ar
    31    16    11   ar
    32     6     1   ar
    33    29    19   ar
    34    28    22   ar
    35    31    32    1
@<TRIPOS>MOLECULE
*****
 32 35 0 0 0
SMALL
GASTEIGER

@<TRIPOS>ATOM
      1 C          63.4492   86.8435   16.0064 C.ar    1  UNL1       -0.0062
      2 C          62.9397   87.9368   16.8981 C.ar    1  UNL1       -0.0031
      3 C          63.2855   89.3664   16.6043 C.ar    1  UNL1       -0.0010
      4 C          64.1407   89.7028   15.4188 C.ar    1  UNL1        0.0211
      5 C          64.6502   88.6095   14.5271 C.ar    1  UNL1       -0.0010
      6 C          64.3044   87.1799   14.8210 C.ar    1  UNL1       -0.0031
      7 C          63.1034   85.4137   16.3002 C.3     1  UNL1        0.0994
      8 C          64.6595   83.5795   15.3185 C.3     1  UNL1        0.0902
      9 N          63.3739   84.3511   15.2767 N.3     1  UNL1       -0.2639
     10 C          62.3588   84.0601   14.2114 C.3     1  UNL1        0.0994
     11 C          62.7783   83.3822   12.9408 C.ar    1  UNL1       -0.0061
     12 C          62.4752   81.9281   12.7312 C.ar    1  UNL1       -0.0029
     13 C          62.8947   81.2502   11.4605 C.ar    1  UNL1       -0.0003
     14 C          63.6173   82.0263   10.3996 C.ar    1  UNL1       -0.0000
     15 C          63.9203   83.4803   10.6092 C.ar    1  UNL1       -0.0003
     16 C          63.5008   84.1583   11.8798 C.ar    1  UNL1       -0.0029
     17 C          64.4865   91.1326   15.1250 C.3     1  UNL1        0.2320
     18 O          65.9117   91.5213   14.8646 O.3     1  UNL1       -0.4705
     19 C          66.2639   92.2975   13.6302 C.ar    1  UNL1        0.1421
     20 C          65.8766   93.7422   13.5167 C.ar    1  UNL1        0.0371
     21 C          66.2288   94.5183   12.2824 C.ar    1  UNL1        0.0059
     22 C          66.9683   93.8497   11.1616 C.ar    1  UNL1        0.0335
     23 C          67.3205   94.6259    9.9273 C.ar    1  UNL1        0.0163
     24 C          68.0600   93.9573    8.8065 C.ar    1  UNL1        0.0805
     25 C          68.4472   92.5126    8.9200 C.ar    1  UNL1        0.3457
     26 O          69.1867   91.8440    7.7992 O.2     1  UNL1       -0.2445
     27 O          68.0950   91.7365   10.1543 O.2     1  UNL1       -0.4209
     28 C          67.3555   92.4050   11.2751 C.ar    1  UNL1        0.1515
     29 C          67.0033   91.6289   12.5094 C.ar    1  UNL1        0.0745
     30 C          66.9332   96.0705    9.8138 C.3     1  UNL1        0.1639
     31 O          65.9775   96.5090    8.7439 O.3     1  UNL1       -0.3772
     32 H          66.3860   96.3816    7.8734 H       1  UNL1        0.2109
@<TRIPOS>BOND
     1     8     9    1
     2     9    10    1
     3    10    11    1
     4    11    12   ar
     5    12    13   ar
     6    13    14   ar
     7    14    15   ar
     8    15    16   ar
     9     9     7    1
    10     7     1    1
    11     1     2   ar
    12     2     3   ar
    13     3     4   ar
    14     4    17    1
    15    17    18    1
    16    18    19    1
    17    19    20   ar
    18    20    21   ar
    19    21    22   ar
    20    22    23   ar
    21    23    30    1
    22    30    31    1
    23    23    24   ar
    24    24    25   ar
    25    25    26    2
    26    25    27   ar
    27    27    28   ar
    28    28    29   ar
    29     4     5   ar
    30     5     6   ar
    31    16    11   ar
    32     6     1   ar
    33    29    19   ar
    34    28    22   ar
    35    31    32    1
