@<TRIPOS>MOLECULE
*****
 32 35 0 0 0
SMALL
GASTEIGER

@<TRIPOS>ATOM
      1 C          62.9602   89.2664   12.0357 C.ar    1  UNL1        0.1748
      2 C          63.8957   89.5072   13.1834 C.ar    1  UNL1        0.0708
      3 C          64.8276   90.6823   13.1575 C.ar    1  UNL1        0.1621
      4 F          65.7630   90.9230   14.3051 F       1  UNL1       -0.2026
      5 C          64.8241   91.6166   11.9840 C.ar    1  UNL1        0.1549
      6 C          63.8887   91.3759   10.8364 C.ar    1  UNL1        0.0553
      7 C          62.9568   90.2008   10.8623 C.ar    1  UNL1        0.1759
      8 F          62.0213   89.9601    9.7146 F       1  UNL1       -0.2009
      9 S          65.7561   92.7917   11.9582 S.O2    1  UNL1        0.0773
     10 O          65.2557   93.2182   13.3064 O.2     1  UNL1       -0.1498
     11 O          66.2564   92.3652   10.6099 O.2     1  UNL1       -0.1498
     12 N          66.6880   93.9668   11.9324 N.pl3   1  UNL1       -0.1925
     13 H          67.3064   94.1212   12.6827 H       1  UNL1        0.1758
     14 C          66.6778   94.9065   10.7632 C.ar    1  UNL1        0.1977
     15 N          67.7496   95.0287    9.7209 N.ar    1  UNL1       -0.1997
     16 C          67.3283   96.0867    8.7446 C.ar    1  UNL1        0.2082
     17 N          65.9961   96.6185    9.1836 N.ar    1  UNL1       -0.1840
     18 S          65.5941   95.8891   10.4312 S.2     1  UNL1        0.0508
     19 O          62.0283   88.0914   12.0615 O.3     1  UNL1       -0.4511
     20 C          62.2877   85.7255   11.0196 C.ar    1  UNL1        0.0527
     21 C          62.8393   84.3320   11.0818 C.ar    1  UNL1        0.0159
     22 C          63.6832   83.9109   12.2481 C.ar    1  UNL1        0.0579
     23 CL         64.2349   82.5174   12.3104 Cl      1  UNL1       -0.0822
     24 C          63.9755   84.8832   13.3523 C.ar    1  UNL1        0.0145
     25 C          63.4239   86.2767   13.2901 C.ar    1  UNL1        0.0384
     26 C          62.5800   86.6978   12.1238 C.ar    1  UNL1        0.1468
     27 C          62.8935   85.0756    7.8795 C.3     1  UNL1        0.1537
     28 N          61.7222   85.8480    8.4099 N.ar    1  UNL1       -0.2487
     29 N          60.6237   86.4572    7.5901 N.ar    1  UNL1       -0.1676
     30 C          59.6662   87.1326    8.5268 C.ar    1  UNL1        0.1217
     31 C          60.1730   86.9406    9.9255 C.ar    1  UNL1        0.0413
     32 C          61.4437   86.1467    9.8532 C.ar    1  UNL1        0.0825
@<TRIPOS>BOND
     1    27    28    1
     2    28    29   ar
     3    29    30   ar
     4    30    31   ar
     5    31    32   ar
     6    32    20    1
     7    20    21   ar
     8    21    22   ar
     9    22    23    1
    10    22    24   ar
    11    24    25   ar
    12    25    26   ar
    13    26    19    1
    14    19     1    1
    15     1     2   ar
    16     2     3   ar
    17     3     4    1
    18     3     5   ar
    19     5     9    1
    20     9    10    2
    21     9    11    2
    22     9    12    1
    23    12    14    1
    24    14    15   ar
    25    15    16   ar
    26    16    17   ar
    27    17    18   ar
    28     5     6   ar
    29     6     7   ar
    30     7     8    1
    31    32    28   ar
    32    26    20   ar
    33     7     1   ar
    34    18    14   ar
    35    12    13    1
@<TRIPOS>MOLECULE
*****
 32 35 0 0 0
SMALL
GASTEIGER

@<TRIPOS>ATOM
      1 C          63.0887   89.3877   12.1977 C.ar    1  UNL1        0.1748
      2 C          63.0395   90.3428   11.0420 C.ar    1  UNL1        0.0708
      3 C          63.9581   91.5282   11.0092 C.ar    1  UNL1        0.1621
      4 F          63.9089   92.4832    9.8535 F       1  UNL1       -0.2026
      5 C          64.9257   91.7586   12.1320 C.ar    1  UNL1        0.1549
      6 C          64.9749   90.8036   13.2876 C.ar    1  UNL1        0.0553
      7 C          64.0563   89.6181   13.3204 C.ar    1  UNL1        0.1759
      8 F          64.1055   88.6631   14.4761 F       1  UNL1       -0.2009
      9 S          65.8443   92.9440   12.0991 S.O2    1  UNL1        0.0773
     10 O          66.3390   92.5232   10.7470 O.2     1  UNL1       -0.1498
     11 O          65.3495   93.3649   13.4512 O.2     1  UNL1       -0.1498
     12 N          66.7628   94.1295   12.0662 N.pl3   1  UNL1       -0.1925
     13 H          67.3816   94.2936   12.8141 H       1  UNL1        0.1758
     14 C          66.7384   95.0648   10.8937 C.ar    1  UNL1        0.1977
     15 N          67.7428   95.1096    9.7805 N.ar    1  UNL1       -0.1997
     16 C          67.3306   96.1920    8.8275 C.ar    1  UNL1        0.2082
     17 N          66.0714   96.8163    9.3516 N.ar    1  UNL1       -0.1840
     18 S          65.7054   96.1196   10.6286 S.2     1  UNL1        0.0508
     19 O          62.1702   88.2023   12.2306 O.3     1  UNL1       -0.4511
     20 C          61.4501   86.4583   10.4445 C.ar    1  UNL1        0.0527
     21 C          60.6462   86.0985    9.2304 C.ar    1  UNL1        0.0159
     22 C          59.7586   87.1229    8.5880 C.ar    1  UNL1        0.0579
     23 CL         58.9546   86.7630    7.3737 Cl      1  UNL1       -0.0822
     24 C          59.6748   88.5070    9.1598 C.ar    1  UNL1        0.0145
     25 C          60.4786   88.8669   10.3740 C.ar    1  UNL1        0.0384
     26 C          61.3663   87.8425   11.0164 C.ar    1  UNL1        0.1468
     27 C          63.4626   84.4160    8.8862 C.3     1  UNL1        0.1537
     28 N          63.2628   84.4952   10.3707 N.ar    1  UNL1       -0.2487
     29 N          63.9530   83.6496   11.3995 N.ar    1  UNL1       -0.1676
     30 C          63.4545   84.0656   12.7518 C.ar    1  UNL1        0.1217
     31 C          62.4563   85.1684   12.5586 C.ar    1  UNL1        0.0413
     32 C          62.3378   85.4339   11.0870 C.ar    1  UNL1        0.0825
@<TRIPOS>BOND
     1    27    28    1
     2    28    29   ar
     3    29    30   ar
     4    30    31   ar
     5    31    32   ar
     6    32    20    1
     7    20    21   ar
     8    21    22   ar
     9    22    23    1
    10    22    24   ar
    11    24    25   ar
    12    25    26   ar
    13    26    19    1
    14    19     1    1
    15     1     2   ar
    16     2     3   ar
    17     3     4    1
    18     3     5   ar
    19     5     9    1
    20     9    10    2
    21     9    11    2
    22     9    12    1
    23    12    14    1
    24    14    15   ar
    25    15    16   ar
    26    16    17   ar
    27    17    18   ar
    28     5     6   ar
    29     6     7   ar
    30     7     8    1
    31    32    28   ar
    32    26    20   ar
    33     7     1   ar
    34    18    14   ar
    35    12    13    1
@<TRIPOS>MOLECULE
*****
 32 35 0 0 0
SMALL
GASTEIGER

@<TRIPOS>ATOM
      1 C          62.6722   88.3727   12.0234 C.ar    1  UNL1        0.1748
      2 C          63.6024   88.7814   13.1270 C.ar    1  UNL1        0.0708
      3 C          64.3022   90.1068   13.0656 C.ar    1  UNL1        0.1621
      4 F          65.2323   90.5156   14.1691 F       1  UNL1       -0.2026
      5 C          64.0719   91.0233   11.9007 C.ar    1  UNL1        0.1549
      6 C          63.1418   90.6145   10.7972 C.ar    1  UNL1        0.0553
      7 C          62.4420   89.2892   10.8585 C.ar    1  UNL1        0.1759
      8 F          61.5118   88.8804    9.7550 F       1  UNL1       -0.2009
      9 S          64.7717   92.3486   11.8393 S.O2    1  UNL1        0.0773
     10 O          64.6827   92.3263   10.3421 O.2     1  UNL1       -0.1498
     11 O          64.8607   92.3709   13.3365 O.2     1  UNL1       -0.1498
     12 N          65.4715   93.6740   11.7780 N.pl3   1  UNL1       -0.1925
     13 H          65.2292   94.3883   12.4106 H       1  UNL1        0.1758
     14 C          66.5405   93.9109   10.7527 C.ar    1  UNL1        0.1977
     15 N          67.6352   92.9543   10.3830 N.ar    1  UNL1       -0.1997
     16 C          68.4737   93.5981    9.3189 C.ar    1  UNL1        0.2082
     17 N          67.8972   94.9527    9.0309 N.ar    1  UNL1       -0.1840
     18 S          66.7025   95.1460    9.9170 S.2     1  UNL1        0.0508
     19 O          61.9724   87.0473   12.0847 O.3     1  UNL1       -0.4511
     20 C          63.3069   84.8367   12.3718 C.ar    1  UNL1        0.0527
     21 C          63.9500   83.6206   11.7740 C.ar    1  UNL1        0.0159
     22 C          63.9019   83.3990   10.2913 C.ar    1  UNL1        0.0579
     23 CL         64.5451   82.1829    9.6934 Cl      1  UNL1       -0.0822
     24 C          63.2107   84.3935    9.4063 C.ar    1  UNL1        0.0145
     25 C          62.5675   85.6096   10.0041 C.ar    1  UNL1        0.0384
     26 C          62.6156   85.8312   11.4869 C.ar    1  UNL1        0.1468
     27 C          61.8212   83.0122   14.6333 C.3     1  UNL1        0.1537
     28 N          62.6721   84.2197   14.8940 N.ar    1  UNL1       -0.2487
     29 N          62.9894   84.8006   16.2401 N.ar    1  UNL1       -0.1676
     30 C          63.8685   85.9983   16.0326 C.ar    1  UNL1        0.1217
     31 C          64.0943   86.1575   14.5583 C.ar    1  UNL1        0.0413
     32 C          63.3549   85.0583   13.8546 C.ar    1  UNL1        0.0825
@<TRIPOS>BOND
     1    27    28    1
     2    28    29   ar
     3    29    30   ar
     4    30    31   ar
     5    31    32   ar
     6    32    20    1
     7    20    21   ar
     8    21    22   ar
     9    22    23    1
    10    22    24   ar
    11    24    25   ar
    12    25    26   ar
    13    26    19    1
    14    19     1    1
    15     1     2   ar
    16     2     3   ar
    17     3     4    1
    18     3     5   ar
    19     5     9    1
    20     9    10    2
    21     9    11    2
    22     9    12    1
    23    12    14    1
    24    14    15   ar
    25    15    16   ar
    26    16    17   ar
    27    17    18   ar
    28     5     6   ar
    29     6     7   ar
    30     7     8    1
    31    32    28   ar
    32    26    20   ar
    33     7     1   ar
    34    18    14   ar
    35    12    13    1
@<TRIPOS>MOLECULE
*****
 32 35 0 0 0
SMALL
GASTEIGER

@<TRIPOS>ATOM
      1 C          64.0534   88.3979   15.2672 C.ar    1  UNL1        0.1748
      2 C          64.2755   87.5358   14.0599 C.ar    1  UNL1        0.0708
      3 C          63.9312   86.0766   14.1067 C.ar    1  UNL1        0.1621
      4 F          64.1532   85.2146   12.8994 F       1  UNL1       -0.2026
      5 C          63.3649   85.4795   15.3608 C.ar    1  UNL1        0.1549
      6 C          63.1429   86.3416   16.5681 C.ar    1  UNL1        0.0553
      7 C          63.4872   87.8008   16.5213 C.ar    1  UNL1        0.1759
      8 F          63.2652   88.6628   17.7286 F       1  UNL1       -0.2009
      9 S          63.0206   84.0203   15.4076 S.O2    1  UNL1        0.0773
     10 O          64.4803   83.6772   15.4488 O.2     1  UNL1       -0.1498
     11 O          61.5609   84.3634   15.3665 O.2     1  UNL1       -0.1498
     12 N          62.6763   82.5611   15.4544 N.pl3   1  UNL1       -0.1925
     13 H          62.4630   82.1330   16.3149 H       1  UNL1        0.1758
     14 C          62.6571   81.7541   14.1901 C.ar    1  UNL1        0.1977
     15 N          62.6380   80.2569   14.0999 N.ar    1  UNL1       -0.1997
     16 C          62.6227   79.8801   12.6481 C.ar    1  UNL1        0.2082
     17 N          62.6323   81.1444   11.8410 N.ar    1  UNL1       -0.1840
     18 S          62.6535   82.3026   12.7940 S.2     1  UNL1        0.0508
     19 O          64.3977   89.8571   15.2204 O.3     1  UNL1       -0.4511
     20 C          65.4514   91.6367   13.6478 C.ar    1  UNL1        0.0527
     21 C          65.4711   92.3609   12.3344 C.ar    1  UNL1        0.0159
     22 C          64.4570   92.0296   11.2800 C.ar    1  UNL1        0.0579
     23 CL         64.4767   92.7538    9.9665 Cl      1  UNL1       -0.0822
     24 C          63.4231   90.9742   11.5391 C.ar    1  UNL1        0.0145
     25 C          63.4033   90.2500   12.8525 C.ar    1  UNL1        0.0384
     26 C          64.4175   90.5813   13.9069 C.ar    1  UNL1        0.1468
     27 C          64.8035   92.6516   16.6810 C.3     1  UNL1        0.1537
     28 N          66.1677   92.4344   16.0965 N.ar    1  UNL1       -0.2487
     29 N          67.4737   92.6456   16.8035 N.ar    1  UNL1       -0.1676
     30 C          68.5787   92.3097   15.8462 C.ar    1  UNL1        0.1217
     31 C          67.9556   91.8909   14.5476 C.ar    1  UNL1        0.0413
     32 C          66.4655   91.9680   14.7023 C.ar    1  UNL1        0.0825
@<TRIPOS>BOND
     1    27    28    1
     2    28    29   ar
     3    29    30   ar
     4    30    31   ar
     5    31    32   ar
     6    32    20    1
     7    20    21   ar
     8    21    22   ar
     9    22    23    1
    10    22    24   ar
    11    24    25   ar
    12    25    26   ar
    13    26    19    1
    14    19     1    1
    15     1     2   ar
    16     2     3   ar
    17     3     4    1
    18     3     5   ar
    19     5     9    1
    20     9    10    2
    21     9    11    2
    22     9    12    1
    23    12    14    1
    24    14    15   ar
    25    15    16   ar
    26    16    17   ar
    27    17    18   ar
    28     5     6   ar
    29     6     7   ar
    30     7     8    1
    31    32    28   ar
    32    26    20   ar
    33     7     1   ar
    34    18    14   ar
    35    12    13    1
@<TRIPOS>MOLECULE
*****
 32 35 0 0 0
SMALL
GASTEIGER

@<TRIPOS>ATOM
      1 C          62.2768   85.9513   10.9299 C.ar    1  UNL1        0.1748
      2 C          61.1662   86.8269   11.4299 C.ar    1  UNL1        0.0708
      3 C          60.2445   87.4989   10.4558 C.ar    1  UNL1        0.1621
      4 F          59.1339   88.3745   10.9557 F       1  UNL1       -0.2026
      5 C          60.4334   87.2953    8.9817 C.ar    1  UNL1        0.1549
      6 C          61.5439   86.4197    8.4818 C.ar    1  UNL1        0.0553
      7 C          62.4656   85.7477    9.4559 C.ar    1  UNL1        0.1759
      8 F          63.5763   84.8721    8.9559 F       1  UNL1       -0.2009
      9 S          59.5117   87.9672    8.0076 S.O2    1  UNL1        0.0773
     10 O          59.9615   89.3082    8.5070 O.2     1  UNL1       -0.1498
     11 O          59.0619   86.6262    7.5081 O.2     1  UNL1       -0.1498
     12 N          58.5900   88.6392    7.0335 N.pl3   1  UNL1       -0.1925
     13 H          57.6535   88.3448    6.9584 H       1  UNL1        0.1758
     14 C          59.0951   89.7598    6.1736 C.ar    1  UNL1        0.1977
     15 N          60.5113   89.9523    5.7184 N.ar    1  UNL1       -0.1997
     16 C          60.5642   91.1960    4.8815 C.ar    1  UNL1        0.2082
     17 N          59.1806   91.7722    4.8196 N.ar    1  UNL1       -0.1840
     18 S          58.2727   90.8845    5.6181 S.2     1  UNL1        0.0508
     19 O          63.1985   85.2793   11.9041 O.3     1  UNL1       -0.4511
     20 C          62.8635   83.3907   13.6565 C.ar    1  UNL1        0.0527
     21 C          62.6811   81.9378   13.9817 C.ar    1  UNL1        0.0159
     22 C          62.6512   80.9206   12.8798 C.ar    1  UNL1        0.0579
     23 CL         62.4688   79.4677   13.2050 Cl      1  UNL1       -0.0822
     24 C          62.8038   81.3563   11.4526 C.ar    1  UNL1        0.0145
     25 C          62.9862   82.8092   11.1273 C.ar    1  UNL1        0.0384
     26 C          63.0161   83.8264   12.2293 C.ar    1  UNL1        0.1468
     27 C          65.4235   85.2305   14.4999 C.3     1  UNL1        0.1537
     28 N          64.0700   85.2536   15.1461 N.ar    1  UNL1       -0.2487
     29 N          63.6557   86.1265   16.2935 N.ar    1  UNL1       -0.1676
     30 C          62.2228   85.8203   16.6149 C.ar    1  UNL1        0.1217
     31 C          61.7517   84.7582   15.6662 C.ar    1  UNL1        0.0413
     32 C          62.8934   84.4080   14.7585 C.ar    1  UNL1        0.0825
@<TRIPOS>BOND
     1    27    28    1
     2    28    29   ar
     3    29    30   ar
     4    30    31   ar
     5    31    32   ar
     6    32    20    1
     7    20    21   ar
     8    21    22   ar
     9    22    23    1
    10    22    24   ar
    11    24    25   ar
    12    25    26   ar
    13    26    19    1
    14    19     1    1
    15     1     2   ar
    16     2     3   ar
    17     3     4    1
    18     3     5   ar
    19     5     9    1
    20     9    10    2
    21     9    11    2
    22     9    12    1
    23    12    14    1
    24    14    15   ar
    25    15    16   ar
    26    16    17   ar
    27    17    18   ar
    28     5     6   ar
    29     6     7   ar
    30     7     8    1
    31    32    28   ar
    32    26    20   ar
    33     7     1   ar
    34    18    14   ar
    35    12    13    1
@<TRIPOS>MOLECULE
*****
 32 35 0 0 0
SMALL
GASTEIGER

@<TRIPOS>ATOM
      1 C          63.9384   90.8810   12.3375 C.ar    1  UNL1        0.1748
      2 C          64.1411   89.7193   13.2646 C.ar    1  UNL1        0.0708
      3 C          63.5971   88.3686   12.9044 C.ar    1  UNL1        0.1621
      4 F          63.7998   87.2069   13.8314 F       1  UNL1       -0.2026
      5 C          62.8504   88.1796   11.6172 C.ar    1  UNL1        0.1549
      6 C          62.6478   89.3413   10.6902 C.ar    1  UNL1        0.0553
      7 C          63.1918   90.6920   11.0503 C.ar    1  UNL1        0.1759
      8 F          62.9891   91.8537   10.1233 F       1  UNL1       -0.2009
      9 S          62.3065   86.8289   11.2571 S.O2    1  UNL1        0.0773
     10 O          62.8360   86.2721   12.5453 O.2     1  UNL1       -0.1498
     11 O          61.7769   87.3856    9.9688 O.2     1  UNL1       -0.1498
     12 N          61.7625   85.4782   10.8970 N.pl3   1  UNL1       -0.1925
     13 H          60.8188   85.3818   10.6335 H       1  UNL1        0.1758
     14 C          62.6564   84.2743   10.9383 C.ar    1  UNL1        0.1977
     15 N          62.6409   83.2002   11.9853 N.ar    1  UNL1       -0.1997
     16 C          63.6975   82.1952   11.6340 C.ar    1  UNL1        0.2082
     17 N          64.3661   82.6481   10.3699 N.ar    1  UNL1       -0.1840
     18 S          63.7226   83.9331    9.9399 S.2     1  UNL1        0.0508
     19 O          64.4824   92.2317   12.6976 O.3     1  UNL1       -0.4511
     20 C          67.0185   92.6023   13.1232 C.ar    1  UNL1        0.0527
     21 C          68.1730   92.7167   14.0739 C.ar    1  UNL1        0.0159
     22 C          67.9461   92.5749   15.5498 C.ar    1  UNL1        0.0579
     23 CL         69.1007   92.6893   16.5006 Cl      1  UNL1       -0.0822
     24 C          66.5646   92.3186   16.0750 C.ar    1  UNL1        0.0145
     25 C          65.4100   92.2042   15.1243 C.ar    1  UNL1        0.0384
     26 C          65.6370   92.3461   13.6484 C.ar    1  UNL1        0.1468
     27 C          66.0117   95.0832   11.2573 C.3     1  UNL1        0.1537
     28 N          66.7826   93.8845   10.7896 N.ar    1  UNL1       -0.2487
     29 N          67.2261   93.6157    9.3821 N.ar    1  UNL1       -0.1676
     30 C          67.9630   92.3091    9.3698 C.ar    1  UNL1        0.1217
     31 C          67.9748   91.7706   10.7697 C.ar    1  UNL1        0.0413
     32 C          67.2454   92.7442   11.6472 C.ar    1  UNL1        0.0825
@<TRIPOS>BOND
     1    27    28    1
     2    28    29   ar
     3    29    30   ar
     4    30    31   ar
     5    31    32   ar
     6    32    20    1
     7    20    21   ar
     8    21    22   ar
     9    22    23    1
    10    22    24   ar
    11    24    25   ar
    12    25    26   ar
    13    26    19    1
    14    19     1    1
    15     1     2   ar
    16     2     3   ar
    17     3     4    1
    18     3     5   ar
    19     5     9    1
    20     9    10    2
    21     9    11    2
    22     9    12    1
    23    12    14    1
    24    14    15   ar
    25    15    16   ar
    26    16    17   ar
    27    17    18   ar
    28     5     6   ar
    29     6     7   ar
    30     7     8    1
    31    32    28   ar
    32    26    20   ar
    33     7     1   ar
    34    18    14   ar
    35    12    13    1
@<TRIPOS>MOLECULE
*****
 32 35 0 0 0
SMALL
GASTEIGER

@<TRIPOS>ATOM
      1 C          61.9225   88.0687   11.1913 C.ar    1  UNL1        0.1748
      2 C          62.0586   87.1688    9.9989 C.ar    1  UNL1        0.0708
      3 C          61.2165   87.4059    8.7804 C.ar    1  UNL1        0.1621
      4 F          61.3526   86.5061    7.5880 F       1  UNL1       -0.2026
      5 C          60.2382   88.5427    8.7544 C.ar    1  UNL1        0.1549
      6 C          60.1021   89.4425    9.9469 C.ar    1  UNL1        0.0553
      7 C          60.9442   89.2054   11.1653 C.ar    1  UNL1        0.1759
      8 F          60.8081   90.1053   12.3578 F       1  UNL1       -0.2009
      9 S          59.3961   88.7798    7.5360 S.O2    1  UNL1        0.0773
     10 O          60.1445   90.0513    7.2660 O.2     1  UNL1       -0.1498
     11 O          58.6476   87.5082    7.8060 O.2     1  UNL1       -0.1498
     12 N          58.5539   89.0168    6.3176 N.pl3   1  UNL1       -0.1925
     13 H          57.9162   88.3290    6.0185 H       1  UNL1        0.1758
     14 C          58.6834   90.3019    5.5548 C.ar    1  UNL1        0.1977
     15 N          59.9600   90.8944    5.0358 N.ar    1  UNL1       -0.1997
     16 C          59.6247   92.1788    4.3373 C.ar    1  UNL1        0.2082
     17 N          58.1408   92.3801    4.4246 N.ar    1  UNL1       -0.1840
     18 S          57.5591   91.2202    5.1771 S.2     1  UNL1        0.0508
     19 O          62.7646   87.8316   12.4098 O.3     1  UNL1       -0.4511
     20 C          64.2913   88.7655   14.2932 C.ar    1  UNL1        0.0527
     21 C          65.1158   89.8811   14.8637 C.ar    1  UNL1        0.0159
     22 C          65.2383   91.1786   14.1211 C.ar    1  UNL1        0.0579
     23 CL         66.0628   92.2943   14.6916 Cl      1  UNL1       -0.0822
     24 C          64.5362   91.3605   12.8081 C.ar    1  UNL1        0.0145
     25 C          63.7116   90.2449   12.2377 C.ar    1  UNL1        0.0384
     26 C          63.5892   88.9473   12.9802 C.ar    1  UNL1        0.1468
     27 C          62.9260   88.3567   17.2290 C.3     1  UNL1        0.1537
     28 N          63.5413   87.2800   16.3852 N.ar    1  UNL1       -0.2487
     29 N          63.6370   85.8264   16.7426 N.ar    1  UNL1       -0.1676
     30 C          64.3238   85.1158   15.6141 C.ar    1  UNL1        0.1217
     31 C          64.6524   86.1303   14.5592 C.ar    1  UNL1        0.0413
     32 C          64.1688   87.4679   15.0358 C.ar    1  UNL1        0.0825
@<TRIPOS>BOND
     1    27    28    1
     2    28    29   ar
     3    29    30   ar
     4    30    31   ar
     5    31    32   ar
     6    32    20    1
     7    20    21   ar
     8    21    22   ar
     9    22    23    1
    10    22    24   ar
    11    24    25   ar
    12    25    26   ar
    13    26    19    1
    14    19     1    1
    15     1     2   ar
    16     2     3   ar
    17     3     4    1
    18     3     5   ar
    19     5     9    1
    20     9    10    2
    21     9    11    2
    22     9    12    1
    23    12    14    1
    24    14    15   ar
    25    15    16   ar
    26    16    17   ar
    27    17    18   ar
    28     5     6   ar
    29     6     7   ar
    30     7     8    1
    31    32    28   ar
    32    26    20   ar
    33     7     1   ar
    34    18    14   ar
    35    12    13    1
@<TRIPOS>MOLECULE
*****
 32 35 0 0 0
SMALL
GASTEIGER

@<TRIPOS>ATOM
      1 C          62.2000   88.5721   11.7370 C.ar    1  UNL1        0.1748
      2 C          63.2012   88.4553   12.8479 C.ar    1  UNL1        0.0708
      3 C          64.1104   89.6062   13.1622 C.ar    1  UNL1        0.1621
      4 F          65.1115   89.4895   14.2731 F       1  UNL1       -0.2026
      5 C          64.0185   90.8738   12.3654 C.ar    1  UNL1        0.1549
      6 C          63.0175   90.9906   11.2545 C.ar    1  UNL1        0.0553
      7 C          62.1082   89.8397   10.9403 C.ar    1  UNL1        0.1759
      8 F          61.1071   89.9565    9.8293 F       1  UNL1       -0.2009
      9 S          64.9278   92.0247   12.6797 S.O2    1  UNL1        0.0773
     10 O          64.4954   91.9744   14.1151 O.2     1  UNL1       -0.1498
     11 O          65.3602   92.0750   11.2442 O.2     1  UNL1       -0.1498
     12 N          65.8371   93.1756   12.9939 N.pl3   1  UNL1       -0.1925
     13 H          65.6320   94.0739   12.6471 H       1  UNL1        0.1758
     14 C          67.0587   92.9578   13.8367 C.ar    1  UNL1        0.1977
     15 N          68.2588   92.1425   13.4556 N.ar    1  UNL1       -0.1997
     16 C          69.2366   92.1978   14.5918 C.ar    1  UNL1        0.2082
     17 N          68.6408   93.0474   15.6751 N.ar    1  UNL1       -0.1840
     18 S          67.2948   93.5170   15.2083 S.2     1  UNL1        0.0508
     19 O          61.2908   87.4212   11.4227 O.3     1  UNL1       -0.4511
     20 C          62.1976   85.3996   10.0660 C.ar    1  UNL1        0.0527
     21 C          62.3382   84.6662    8.7651 C.ar    1  UNL1        0.0159
     22 C          61.7126   85.2212    7.5199 C.ar    1  UNL1        0.0579
     23 CL         61.8531   84.4878    6.2190 Cl      1  UNL1       -0.0822
     24 C          60.9463   86.5094    7.5757 C.ar    1  UNL1        0.0145
     25 C          60.8057   87.2428    8.8766 C.ar    1  UNL1        0.0384
     26 C          61.4313   86.6879   10.1217 C.ar    1  UNL1        0.1468
     27 C          64.4308   83.0234   10.1958 C.3     1  UNL1        0.1537
     28 N          63.8498   83.7525   11.3709 N.ar    1  UNL1       -0.2487
     29 N          64.1933   83.5174   12.8120 N.ar    1  UNL1       -0.1676
     30 C          63.3791   84.4642   13.6431 C.ar    1  UNL1        0.1217
     31 C          62.5324   85.2845   12.7155 C.ar    1  UNL1        0.0413
     32 C          62.8234   84.8447   11.3113 C.ar    1  UNL1        0.0825
@<TRIPOS>BOND
     1    27    28    1
     2    28    29   ar
     3    29    30   ar
     4    30    31   ar
     5    31    32   ar
     6    32    20    1
     7    20    21   ar
     8    21    22   ar
     9    22    23    1
    10    22    24   ar
    11    24    25   ar
    12    25    26   ar
    13    26    19    1
    14    19     1    1
    15     1     2   ar
    16     2     3   ar
    17     3     4    1
    18     3     5   ar
    19     5     9    1
    20     9    10    2
    21     9    11    2
    22     9    12    1
    23    12    14    1
    24    14    15   ar
    25    15    16   ar
    26    16    17   ar
    27    17    18   ar
    28     5     6   ar
    29     6     7   ar
    30     7     8    1
    31    32    28   ar
    32    26    20   ar
    33     7     1   ar
    34    18    14   ar
    35    12    13    1
@<TRIPOS>MOLECULE
*****
 32 35 0 0 0
SMALL
GASTEIGER

@<TRIPOS>ATOM
      1 C          62.2910   85.5552   10.5832 C.ar    1  UNL1        0.1748
      2 C          61.2683   86.4690   11.1907 C.ar    1  UNL1        0.0708
      3 C          60.3369   87.2450   10.3073 C.ar    1  UNL1        0.1621
      4 F          59.3142   88.1588   10.9148 F       1  UNL1       -0.2026
      5 C          60.4283   87.1072    8.8164 C.ar    1  UNL1        0.1549
      6 C          61.4510   86.1935    8.2090 C.ar    1  UNL1        0.0553
      7 C          62.3823   85.4175    9.0923 C.ar    1  UNL1        0.1759
      8 F          63.4051   84.5037    8.4848 F       1  UNL1       -0.2009
      9 S          59.4969   87.8833    7.9331 S.O2    1  UNL1        0.0773
     10 O          60.0536   89.1669    8.4737 O.2     1  UNL1       -0.1498
     11 O          58.9402   86.5996    7.3924 O.2     1  UNL1       -0.1498
     12 N          58.5655   88.6593    7.0497 N.pl3   1  UNL1       -0.1925
     13 H          57.6047   88.4449    7.0385 H       1  UNL1        0.1758
     14 C          59.0981   89.7620    6.1834 C.ar    1  UNL1        0.1977
     15 N          60.5273   89.9426    5.7652 N.ar    1  UNL1       -0.1997
     16 C          60.6075   91.1698    4.9065 C.ar    1  UNL1        0.2082
     17 N          59.2279   91.7478    4.7940 N.ar    1  UNL1       -0.1840
     18 S          58.2950   90.8777    5.5831 S.2     1  UNL1        0.0508
     19 O          63.2224   84.7792   11.4665 O.3     1  UNL1       -0.4511
     20 C          63.1187   84.0844   13.9679 C.ar    1  UNL1        0.0527
     21 C          63.2431   84.4375   15.4204 C.ar    1  UNL1        0.0159
     22 C          63.5956   85.8384   15.8241 C.ar    1  UNL1        0.0579
     23 CL         63.7200   86.1916   17.2767 Cl      1  UNL1       -0.0822
     24 C          63.8237   86.8863   14.7754 C.ar    1  UNL1        0.0145
     25 C          63.6993   86.5333   13.3229 C.ar    1  UNL1        0.0384
     26 C          63.3468   85.1323   12.9191 C.ar    1  UNL1        0.1468
     27 C          64.6469   82.2986   11.7040 C.3     1  UNL1        0.1537
     28 N          63.4687   81.8626   12.5235 N.ar    1  UNL1       -0.2487
     29 N          62.7860   80.5292   12.4463 N.ar    1  UNL1       -0.1676
     30 C          61.6616   80.5259   13.4392 C.ar    1  UNL1        0.1217
     31 C          61.6494   81.8573   14.1300 C.ar    1  UNL1        0.0413
     32 C          62.7662   82.6834   13.5641 C.ar    1  UNL1        0.0825
@<TRIPOS>BOND
     1    27    28    1
     2    28    29   ar
     3    29    30   ar
     4    30    31   ar
     5    31    32   ar
     6    32    20    1
     7    20    21   ar
     8    21    22   ar
     9    22    23    1
    10    22    24   ar
    11    24    25   ar
    12    25    26   ar
    13    26    19    1
    14    19     1    1
    15     1     2   ar
    16     2     3   ar
    17     3     4    1
    18     3     5   ar
    19     5     9    1
    20     9    10    2
    21     9    11    2
    22     9    12    1
    23    12    14    1
    24    14    15   ar
    25    15    16   ar
    26    16    17   ar
    27    17    18   ar
    28     5     6   ar
    29     6     7   ar
    30     7     8    1
    31    32    28   ar
    32    26    20   ar
    33     7     1   ar
    34    18    14   ar
    35    12    13    1
