@<TRIPOS>MOLECULE
*****
 48 55 0 0 0
SMALL
GASTEIGER

@<TRIPOS>ATOM
      1 C          61.2283   91.4275    4.6755 C.2     1  UNL1       -0.0003
      2 C          60.4553   90.8767    5.8370 C.2     1  UNL1       -0.0003
      3 C          61.2732   92.5564    2.3360 C.2     1  UNL1       -0.0261
      4 C          60.5020   91.9606    3.4763 C.2     1  UNL1       -0.0046
      5 C          59.8202   95.0066   -2.2614 C.3     1  UNL1        0.0041
      6 C          59.0941   94.1559   -1.2618 C.3     1  UNL1        0.0157
      7 C          58.3678   94.6890   -2.4610 C.3     1  UNL1        0.0118
      8 C          56.9155   94.3715   -2.6606 C.3     1  UNL1        0.0694
      9 C          56.1895   93.5208   -1.6610 C.2     1  UNL1        0.1725
     10 O          54.7371   93.2033   -1.8606 O.2     1  UNL1       -0.2914
     11 C          56.9158   92.9876   -0.4618 C.2     1  UNL1        0.0290
     12 C          58.3681   93.3052   -0.2621 C.2     1  UNL1       -0.0417
     13 C          59.0945   92.7720    0.9371 C.3     1  UNL1        0.0264
     14 C          60.5468   93.0896    1.1367 C.3     1  UNL1        0.0261
     15 C          61.2729   93.9403    0.1371 C.3     1  UNL1        0.0050
     16 C          60.5465   94.4734   -1.0621 C.3     1  UNL1        0.0038
     17 C          61.2726   95.3241   -2.0617 C.3     1  UNL1        0.0007
     18 C          62.7249   95.6417   -1.8621 C.3     1  UNL1        0.0069
     19 C          63.4513   95.1085   -0.6628 C.3     1  UNL1        0.0515
     20 C          64.3047   95.9416   -1.5726 C.3     1  UNL1        0.0073
     21 C          64.8718   95.2530   -0.2036 C.2     1  UNL1        0.1498
     22 O          65.9511   96.0236   -0.9047 O.2     1  UNL1       -0.2961
     23 C          65.0239   94.4916    1.0798 C.3     1  UNL1        0.0645
     24 C          63.6971   93.8766    1.4137 C.3     1  UNL1        0.0082
     25 C          62.7253   94.2578    0.3368 C.3     1  UNL1        0.0073
     26 C          61.1816   90.3435    7.0362 C.2     1  UNL1       -0.0046
     27 C          60.4415   90.1145    8.3207 C.2     1  UNL1       -0.0261
     28 C          61.1679   89.5813    9.5199 C.3     1  UNL1        0.0261
     29 C          61.5169   90.4984   10.6544 C.3     1  UNL1        0.0264
     30 C          62.2433   89.9652   11.8536 C.2     1  UNL1       -0.0417
     31 C          62.5923   90.8824   12.9881 C.2     1  UNL1        0.0290
     32 C          63.3187   90.3492   14.1873 C.2     1  UNL1        0.1725
     33 O          63.6677   91.2663   15.3218 O.2     1  UNL1       -0.2914
     34 C          63.6960   88.8988   14.2520 C.3     1  UNL1        0.0694
     35 C          63.3470   87.9817   13.1176 C.3     1  UNL1        0.0118
     36 C          62.6206   88.5149   11.9183 C.3     1  UNL1        0.0157
     37 C          62.9980   87.0646   11.9830 C.3     1  UNL1        0.0041
     38 C          62.2716   87.5978   10.7838 C.3     1  UNL1        0.0038
     39 C          62.6490   86.1475   10.8486 C.3     1  UNL1        0.0007
     40 C          62.3000   85.2303    9.7141 C.3     1  UNL1        0.0069
     41 C          61.5736   85.7635    8.5149 C.3     1  UNL1        0.0515
     42 C          61.8839   84.2979    8.4384 C.3     1  UNL1        0.0073
     43 C          61.0997   85.1045    7.2534 C.2     1  UNL1        0.1498
     44 O          61.2667   83.6567    6.8987 O.2     1  UNL1       -0.2961
     45 C          60.4295   86.1476    6.4092 C.3     1  UNL1        0.0645
     46 C          60.4891   87.4511    7.1487 C.3     1  UNL1        0.0082
     47 C          61.1962   87.2138    8.4501 C.3     1  UNL1        0.0073
     48 C          61.5453   88.1310    9.5847 C.3     1  UNL1        0.0050
@<TRIPOS>BOND
     1     6     5    1
     2     6     7    1
     3     7     8    1
     4     8     9    1
     5     9    10    2
     6     9    11    1
     7    11    12    2
     8    12    13    1
     9    13    14    1
    10    14     3    1
    11     3     4    2
    12     4     1    1
    13     1     2    2
    14     2    26    1
    15    26    27    2
    16    28    27    1
    17    28    29    1
    18    29    30    1
    19    30    31    2
    20    31    32    1
    21    32    33    2
    22    32    34    1
    23    34    35    1
    24    35    36    1
    25    36    37    1
    26    36    38    1
    27    38    39    1
    28    39    40    1
    29    40    41    1
    30    41    42    1
    31    41    43    1
    32    43    44    2
    33    43    45    1
    34    45    46    1
    35    47    46    1
    36    47    48    1
    37    15    14    1
    38    15    16    1
    39    16    17    1
    40    17    18    1
    41    18    19    1
    42    19    20    1
    43    19    21    1
    44    21    22    2
    45    21    23    1
    46    23    24    1
    47    25    24    1
    48    12     6    1
    49    48    28    1
    50    25    15    1
    51    16     6    1
    52    25    19    1
    53    36    30    1
    54    48    38    1
    55    47    41    1
@<TRIPOS>MOLECULE
*****
 48 55 0 0 0
SMALL
GASTEIGER

@<TRIPOS>ATOM
      1 C          60.4632   90.8857    5.8599 C.2     1  UNL1       -0.0003
      2 C          61.2376   91.4356    4.6989 C.2     1  UNL1       -0.0003
      3 C          60.4474   90.1123    8.3401 C.2     1  UNL1       -0.0261
      4 C          61.1883   90.3463    7.0571 C.2     1  UNL1       -0.0046
      5 C          62.9985   87.0429   11.9900 C.3     1  UNL1        0.0041
      6 C          62.6230   88.4940   11.9316 C.3     1  UNL1        0.0157
      7 C          63.3482   87.9546   13.1287 C.3     1  UNL1        0.0118
      8 C          63.6979   88.8662   14.2673 C.3     1  UNL1        0.0694
      9 C          63.3225   90.3173   14.2089 C.2     1  UNL1        0.1725
     10 O          63.6722   91.2289   15.3476 O.2     1  UNL1       -0.2914
     11 C          62.5973   90.8567   13.0118 C.2     1  UNL1        0.0290
     12 C          62.2476   89.9451   11.8732 C.2     1  UNL1       -0.0417
     13 C          61.5224   90.4845   10.6760 C.3     1  UNL1        0.0264
     14 C          61.1726   89.5728    9.5373 C.3     1  UNL1        0.0261
     15 C          61.5481   88.1218    9.5958 C.3     1  UNL1        0.0050
     16 C          62.2733   87.5823   10.7929 C.3     1  UNL1        0.0038
     17 C          62.6488   86.1313   10.8513 C.3     1  UNL1        0.0007
     18 C          62.2991   85.2196    9.7126 C.3     1  UNL1        0.0069
     19 C          61.5738   85.7591    8.5155 C.3     1  UNL1        0.0515
     20 C          61.8824   84.2935    8.4327 C.3     1  UNL1        0.0073
     21 C          61.0997   85.1063    7.2510 C.2     1  UNL1        0.1498
     22 O          61.2650   83.6598    6.8898 O.2     1  UNL1       -0.2961
     23 C          60.4311   86.1539    6.4111 C.3     1  UNL1        0.0645
     24 C          60.4922   87.4541    7.1565 C.3     1  UNL1        0.0082
     25 C          61.1984   87.2101    8.4570 C.3     1  UNL1        0.0073
     26 C          60.5124   91.9750    3.5018 C.2     1  UNL1       -0.0046
     27 C          61.2858   92.5562    2.3554 C.2     1  UNL1       -0.0261
     28 C          60.5606   93.0956    1.1582 C.3     1  UNL1        0.0261
     29 C          59.1077   92.7817    0.9572 C.3     1  UNL1        0.0264
     30 C          58.3825   93.3211   -0.2399 C.2     1  UNL1       -0.0417
     31 C          56.9295   93.0072   -0.4410 C.2     1  UNL1        0.0290
     32 C          56.2044   93.5466   -1.6381 C.2     1  UNL1        0.1725
     33 O          54.7514   93.2327   -1.8392 O.2     1  UNL1       -0.2914
     34 C          56.9322   94.3999   -2.6342 C.3     1  UNL1        0.0694
     35 C          58.3851   94.7138   -2.4332 C.3     1  UNL1        0.0118
     36 C          59.1103   94.1744   -1.2360 C.3     1  UNL1        0.0157
     37 C          59.8381   95.0277   -2.2321 C.3     1  UNL1        0.0041
     38 C          60.5632   94.4883   -1.0350 C.3     1  UNL1        0.0038
     39 C          61.2910   95.3416   -2.0311 C.3     1  UNL1        0.0007
     40 C          62.7439   95.6555   -1.8301 C.3     1  UNL1        0.0069
     41 C          63.4691   95.1161   -0.6329 C.3     1  UNL1        0.0515
     42 C          64.3244   95.9511   -1.5392 C.3     1  UNL1        0.0073
     43 C          64.8900   95.2559   -0.1729 C.2     1  UNL1        0.1498
     44 O          65.9707   96.0272   -0.8709 O.2     1  UNL1       -0.2961
     45 C          65.0403   94.4891    1.1074 C.3     1  UNL1        0.0645
     46 C          63.7125   93.8753    1.4388 C.3     1  UNL1        0.0082
     47 C          62.7414   94.2628    0.3632 C.3     1  UNL1        0.0073
     48 C          61.2884   93.9489    0.1621 C.3     1  UNL1        0.0050
@<TRIPOS>BOND
     1     6     5    1
     2     6     7    1
     3     7     8    1
     4     8     9    1
     5     9    10    2
     6     9    11    1
     7    11    12    2
     8    12    13    1
     9    13    14    1
    10    14     3    1
    11     3     4    2
    12     4     1    1
    13     1     2    2
    14     2    26    1
    15    26    27    2
    16    28    27    1
    17    28    29    1
    18    29    30    1
    19    30    31    2
    20    31    32    1
    21    32    33    2
    22    32    34    1
    23    34    35    1
    24    35    36    1
    25    36    37    1
    26    36    38    1
    27    38    39    1
    28    39    40    1
    29    40    41    1
    30    41    42    1
    31    41    43    1
    32    43    44    2
    33    43    45    1
    34    45    46    1
    35    47    46    1
    36    47    48    1
    37    15    14    1
    38    15    16    1
    39    16    17    1
    40    17    18    1
    41    18    19    1
    42    19    20    1
    43    19    21    1
    44    21    22    2
    45    21    23    1
    46    23    24    1
    47    25    24    1
    48    12     6    1
    49    48    28    1
    50    25    15    1
    51    16     6    1
    52    25    19    1
    53    36    30    1
    54    48    38    1
    55    47    41    1
