@<TRIPOS>MOLECULE
*****
 28 30 0 0 0
SMALL
GASTEIGER

@<TRIPOS>ATOM
      1 C          63.5116   86.5876   16.0623 C.ar    1  UNL1        0.1384
      2 C          64.2914   86.8505   14.8080 C.ar    1  UNL1        0.0370
      3 C          64.6349   88.2580   14.4196 C.ar    1  UNL1        0.0076
      4 C          64.1988   89.4026   15.2853 C.ar    1  UNL1        0.0536
      5 C          63.4191   89.1398   16.5395 C.ar    1  UNL1        0.0076
      6 C          63.0755   87.7323   16.9280 C.ar    1  UNL1        0.0370
      7 C          64.5424   90.8102   14.8968 C.2     1  UNL1        0.2458
      8 O          63.8401   91.9619   15.5528 O.2     1  UNL1       -0.2701
      9 N          65.5882   91.0659   13.8524 N.am    1  UNL1       -0.3011
     10 H          66.0491   90.3100   13.4218 H       1  UNL1        0.1497
     11 C          65.9317   92.4734   13.4639 C.3     1  UNL1        0.0892
     12 C          66.4812   93.5304   14.3753 C.3     1  UNL1        0.0383
     13 C          66.6752   94.7813   13.5706 C.3     1  UNL1        0.0738
     14 N          66.2455   94.4973   12.1617 N.3     1  UNL1       -0.2725
     15 C          65.7860   93.0709   12.0958 C.3     1  UNL1        0.0919
     16 C          66.2709   95.4691   11.0193 C.3     1  UNL1        0.0576
     17 C          65.7286   96.8556   11.2019 C.3     1  UNL1        0.0173
     18 C          66.8386   95.0543    9.6943 C.3     1  UNL1        0.0173
     19 O          63.1681   85.1801   16.4507 O.3     1  UNL1       -0.4791
     20 N          63.0081   81.9560   13.3155 N.3     1  UNL1       -0.2737
     21 C          64.2742   82.7310   13.5304 C.3     1  UNL1        0.0758
     22 C          64.3276   83.8057   14.5754 C.3     1  UNL1        0.0609
     23 C          63.1148   84.1054   15.4056 C.3     1  UNL1        0.1687
     24 C          61.8486   83.3304   15.1908 C.3     1  UNL1        0.0609
     25 C          61.7953   82.2557   14.1457 C.3     1  UNL1        0.0758
     26 C          62.5528   79.4866   12.6487 C.3     1  UNL1        0.0173
     27 C          62.9548   80.8813   12.2704 C.3     1  UNL1        0.0576
     28 C          63.3034   81.2013   10.8471 C.3     1  UNL1        0.0173
@<TRIPOS>BOND
     1    26    27    1
     2    27    28    1
     3    27    20    1
     4    20    21    1
     5    21    22    1
     6    22    23    1
     7    23    19    1
     8    19     1    1
     9     1     2   ar
    10     2     3   ar
    11     3     4   ar
    12     4     7    1
    13     7     8    2
    14     7     9   am
    15     9    11    1
    16    11    12    1
    17    12    13    1
    18    13    14    1
    19    14    16    1
    20    16    17    1
    21    16    18    1
    22    14    15    1
    23     4     5   ar
    24     5     6   ar
    25    23    24    1
    26    24    25    1
    27    25    20    1
    28     6     1   ar
    29    15    11    1
    30     9    10    1
@<TRIPOS>MOLECULE
*****
 28 30 0 0 0
SMALL
GASTEIGER

@<TRIPOS>ATOM
      1 C          64.7652   91.1707   13.5331 C.ar    1  UNL1        0.1384
      2 C          65.1528   90.1511   14.5628 C.ar    1  UNL1        0.0370
      3 C          64.6486   88.7429   14.4509 C.ar    1  UNL1        0.0076
      4 C          63.7567   88.3541   13.3092 C.ar    1  UNL1        0.0536
      5 C          63.3691   89.3736   12.2795 C.ar    1  UNL1        0.0076
      6 C          63.8733   90.7819   12.3914 C.ar    1  UNL1        0.0370
      7 C          63.2525   86.9458   13.1973 C.2     1  UNL1        0.2458
      8 O          62.2709   86.5839   12.1223 O.2     1  UNL1       -0.2701
      9 N          63.7297   85.8996   14.1603 N.am    1  UNL1       -0.3011
     10 H          64.3739   86.1371   14.8659 H       1  UNL1        0.1497
     11 C          63.2255   84.4913   14.0484 C.3     1  UNL1        0.0892
     12 C          62.3727   83.7775   15.0550 C.3     1  UNL1        0.0383
     13 C          62.1056   82.3947   14.5389 C.3     1  UNL1        0.0738
     14 N          62.7934   82.2538   13.2133 N.3     1  UNL1       -0.2725
     15 C          63.4855   83.5496   12.9102 C.3     1  UNL1        0.0919
     16 C          62.7898   81.0317   12.3436 C.3     1  UNL1        0.0576
     17 C          63.1515   81.1430   10.8921 C.3     1  UNL1        0.0173
     18 C          62.4244   79.6982   12.9253 C.3     1  UNL1        0.0173
     19 O          65.2694   92.5789   13.6450 O.3     1  UNL1       -0.4791
     20 N          66.9525   94.6605   10.0278 N.3     1  UNL1       -0.2737
     21 C          66.4925   95.4630   11.2086 C.3     1  UNL1        0.0758
     22 C          65.9315   94.7691   12.4143 C.3     1  UNL1        0.0609
     23 C          65.8305   93.2728   12.4393 C.3     1  UNL1        0.1687
     24 C          66.2905   92.4703   11.2585 C.3     1  UNL1        0.0609
     25 C          66.8515   93.1641   10.0528 C.3     1  UNL1        0.0758
     26 C          67.5339   96.8529    8.7608 C.3     1  UNL1        0.0173
     27 C          67.5136   95.3543    8.8221 C.3     1  UNL1        0.0576
     28 C          68.0543   94.5496    7.6775 C.3     1  UNL1        0.0173
@<TRIPOS>BOND
     1    26    27    1
     2    27    28    1
     3    27    20    1
     4    20    21    1
     5    21    22    1
     6    22    23    1
     7    23    19    1
     8    19     1    1
     9     1     2   ar
    10     2     3   ar
    11     3     4   ar
    12     4     7    1
    13     7     8    2
    14     7     9   am
    15     9    11    1
    16    11    12    1
    17    12    13    1
    18    13    14    1
    19    14    16    1
    20    16    17    1
    21    16    18    1
    22    14    15    1
    23     4     5   ar
    24     5     6   ar
    25    23    24    1
    26    24    25    1
    27    25    20    1
    28     6     1   ar
    29    15    11    1
    30     9    10    1
@<TRIPOS>MOLECULE
*****
 28 30 0 0 0
SMALL
GASTEIGER

@<TRIPOS>ATOM
      1 C          58.9803   90.3693    5.9248 C.ar    1  UNL1        0.1384
      2 C          58.0458   91.2811    5.1861 C.ar    1  UNL1        0.0370
      3 C          58.5719   92.1794    4.1062 C.ar    1  UNL1        0.0076
      4 C          60.0325   92.1659    3.7648 C.ar    1  UNL1        0.0536
      5 C          60.9670   91.2542    4.5034 C.ar    1  UNL1        0.0076
      6 C          60.4409   90.3559    5.5834 C.ar    1  UNL1        0.0370
      7 C          60.5586   93.0643    2.6848 C.2     1  UNL1        0.2458
      8 O          60.0920   94.4873    2.5996 O.2     1  UNL1       -0.2701
      9 N          61.5512   92.5396    1.6902 N.am    1  UNL1       -0.3011
     10 H          61.8574   91.6056    1.7462 H       1  UNL1        0.1497
     11 C          62.0772   93.4379    0.6103 C.3     1  UNL1        0.0892
     12 C          61.3765   93.7799   -0.6711 C.3     1  UNL1        0.0383
     13 C          62.2626   94.7053   -1.4512 C.3     1  UNL1        0.0738
     14 N          63.5109   94.9352   -0.6519 N.3     1  UNL1       -0.2725
     15 C          63.3963   94.1519    0.6222 C.3     1  UNL1        0.0919
     16 C          64.6702   95.7971   -1.0557 C.3     1  UNL1        0.0576
     17 C          65.5507   96.4094   -0.0070 C.3     1  UNL1        0.0173
     18 C          64.9491   96.0467   -2.5083 C.3     1  UNL1        0.0173
     19 O          58.4542   89.4711    7.0047 O.3     1  UNL1       -0.4791
     20 N          61.2352   86.6474    9.1360 N.3     1  UNL1       -0.2737
     21 C          60.3160   86.1317    8.0688 C.3     1  UNL1        0.0758
     22 C          59.3890   87.0730    7.3584 C.3     1  UNL1        0.0609
     23 C          59.3812   88.5298    7.7151 C.3     1  UNL1        0.1687
     24 C          60.3005   89.0455    8.7823 C.3     1  UNL1        0.0609
     25 C          61.2275   88.1043    9.4928 C.3     1  UNL1        0.0758
     26 C          63.1480   84.8907    9.0634 C.3     1  UNL1        0.0173
     27 C          62.1622   85.7061    9.8465 C.3     1  UNL1        0.0576
     28 C          62.1035   85.5804   11.3400 C.3     1  UNL1        0.0173
@<TRIPOS>BOND
     1    26    27    1
     2    27    28    1
     3    27    20    1
     4    20    21    1
     5    21    22    1
     6    22    23    1
     7    23    19    1
     8    19     1    1
     9     1     2   ar
    10     2     3   ar
    11     3     4   ar
    12     4     7    1
    13     7     8    2
    14     7     9   am
    15     9    11    1
    16    11    12    1
    17    12    13    1
    18    13    14    1
    19    14    16    1
    20    16    17    1
    21    16    18    1
    22    14    15    1
    23     4     5   ar
    24     5     6   ar
    25    23    24    1
    26    24    25    1
    27    25    20    1
    28     6     1   ar
    29    15    11    1
    30     9    10    1
@<TRIPOS>MOLECULE
*****
 28 30 0 0 0
SMALL
GASTEIGER

@<TRIPOS>ATOM
      1 C          64.2147   90.4506   13.7505 C.ar    1  UNL1        0.1384
      2 C          64.7673   89.5829   14.8423 C.ar    1  UNL1        0.0370
      3 C          64.5951   88.0943   14.7768 C.ar    1  UNL1        0.0076
      4 C          63.8704   87.4733   13.6197 C.ar    1  UNL1        0.0536
      5 C          63.3178   88.3408   12.5280 C.ar    1  UNL1        0.0076
      6 C          63.4899   89.8295   12.5934 C.ar    1  UNL1        0.0370
      7 C          63.6983   85.9846   13.5543 C.2     1  UNL1        0.2458
      8 O          64.1162   85.1296   14.7138 O.2     1  UNL1       -0.2701
      9 N          63.1083   85.3509   12.3294 N.am    1  UNL1       -0.3011
     10 H          62.8340   85.9120   11.5684 H       1  UNL1        0.1497
     11 C          62.9362   83.8622   12.2641 C.3     1  UNL1        0.0892
     12 C          63.4234   82.9658   11.1645 C.3     1  UNL1        0.0383
     13 C          63.0350   81.5582   11.5077 C.3     1  UNL1        0.0738
     14 N          62.3077   81.5847   12.8194 N.3     1  UNL1       -0.2725
     15 C          62.2467   83.0087   13.2868 C.3     1  UNL1        0.0919
     16 C          61.7410   80.3959   13.5375 C.3     1  UNL1        0.0576
     17 C          62.5291   79.1221   13.6173 C.3     1  UNL1        0.0173
     18 C          60.3863   80.4809   14.1758 C.3     1  UNL1        0.0173
     19 O          64.3868   91.9392   13.8160 O.3     1  UNL1       -0.4791
     20 N          66.5922   94.0954   10.5392 N.3     1  UNL1       -0.2737
     21 C          65.6483   92.9801   10.2000 C.3     1  UNL1        0.0758
     22 C          64.9132   92.2614   11.2923 C.3     1  UNL1        0.0609
     23 C          65.1219   92.6580   12.7237 C.3     1  UNL1        0.1687
     24 C          66.0658   93.7733   13.0629 C.3     1  UNL1        0.0609
     25 C          66.8009   94.4920   11.9707 C.3     1  UNL1        0.0758
     26 C          68.1217   94.0366    8.4400 C.3     1  UNL1        0.0173
     27 C          67.3273   94.8142    9.4470 C.3     1  UNL1        0.0576
     28 C          67.2680   96.3105    9.3617 C.3     1  UNL1        0.0173
@<TRIPOS>BOND
     1    26    27    1
     2    27    28    1
     3    27    20    1
     4    20    21    1
     5    21    22    1
     6    22    23    1
     7    23    19    1
     8    19     1    1
     9     1     2   ar
    10     2     3   ar
    11     3     4   ar
    12     4     7    1
    13     7     8    2
    14     7     9   am
    15     9    11    1
    16    11    12    1
    17    12    13    1
    18    13    14    1
    19    14    16    1
    20    16    17    1
    21    16    18    1
    22    14    15    1
    23     4     5   ar
    24     5     6   ar
    25    23    24    1
    26    24    25    1
    27    25    20    1
    28     6     1   ar
    29    15    11    1
    30     9    10    1
@<TRIPOS>MOLECULE
*****
 28 30 0 0 0
SMALL
GASTEIGER

@<TRIPOS>ATOM
      1 C          63.8527   89.2645   13.8610 C.ar    1  UNL1        0.1384
      2 C          64.4386   88.4187   14.9527 C.ar    1  UNL1        0.0370
      3 C          64.4184   86.9235   14.8356 C.ar    1  UNL1        0.0076
      4 C          63.8125   86.2739   13.6270 C.ar    1  UNL1        0.0536
      5 C          63.2267   87.1195   12.5354 C.ar    1  UNL1        0.0076
      6 C          63.2468   88.6149   12.6524 C.ar    1  UNL1        0.0370
      7 C          63.7924   84.7785   13.5100 C.2     1  UNL1        0.2458
      8 O          64.9621   83.9727   13.9920 O.2     1  UNL1       -0.2701
      9 N          62.6026   84.0891   12.9109 N.am    1  UNL1       -0.3011
     10 H          61.8348   84.6179   12.5945 H       1  UNL1        0.1497
     11 C          62.5825   82.5938   12.7939 C.3     1  UNL1        0.0892
     12 C          62.4307   81.6227   13.9271 C.3     1  UNL1        0.0383
     13 C          62.4651   80.2358   13.3568 C.3     1  UNL1        0.0738
     14 N          62.6382   80.3497   11.8711 N.3     1  UNL1       -0.2725
     15 C          62.7108   81.8071   11.5233 C.3     1  UNL1        0.0919
     16 C          62.7237   79.2070   10.9032 C.3     1  UNL1        0.0576
     17 C          62.7848   77.7969   11.4111 C.3     1  UNL1        0.0173
     18 C          62.7482   79.4743    9.4274 C.3     1  UNL1        0.0173
     19 O          63.8729   90.7597   13.9781 O.3     1  UNL1       -0.4791
     20 N          66.2118   93.2168   11.0214 N.3     1  UNL1       -0.2737
     21 C          66.6245   93.1853   12.4632 C.3     1  UNL1        0.0758
     22 C          65.8448   92.3663   13.4487 C.3     1  UNL1        0.0609
     23 C          64.6525   91.5788   12.9925 C.3     1  UNL1        0.1687
     24 C          64.2399   91.6103   11.5508 C.3     1  UNL1        0.0609
     25 C          65.0195   92.4293   10.5652 C.3     1  UNL1        0.0758
     26 C          67.8936   93.3599    9.0463 C.3     1  UNL1        0.0173
     27 C          66.9915   94.0359   10.0359 C.3     1  UNL1        0.0576
     28 C          66.8691   95.5308   10.0399 C.3     1  UNL1        0.0173
@<TRIPOS>BOND
     1    26    27    1
     2    27    28    1
     3    27    20    1
     4    20    21    1
     5    21    22    1
     6    22    23    1
     7    23    19    1
     8    19     1    1
     9     1     2   ar
    10     2     3   ar
    11     3     4   ar
    12     4     7    1
    13     7     8    2
    14     7     9   am
    15     9    11    1
    16    11    12    1
    17    12    13    1
    18    13    14    1
    19    14    16    1
    20    16    17    1
    21    16    18    1
    22    14    15    1
    23     4     5   ar
    24     5     6   ar
    25    23    24    1
    26    24    25    1
    27    25    20    1
    28     6     1   ar
    29    15    11    1
    30     9    10    1
@<TRIPOS>MOLECULE
*****
 28 30 0 0 0
SMALL
GASTEIGER

@<TRIPOS>ATOM
      1 C          59.3047   89.1715    7.3049 C.ar    1  UNL1        0.1384
      2 C          60.0936   89.6851    8.4728 C.ar    1  UNL1        0.0370
      3 C          60.7918   88.7230    9.3876 C.ar    1  UNL1        0.0076
      4 C          60.7011   87.2473    9.1346 C.ar    1  UNL1        0.0536
      5 C          59.9123   86.7336    7.9668 C.ar    1  UNL1        0.0076
      6 C          59.2141   87.6957    7.0519 C.ar    1  UNL1        0.0370
      7 C          61.3994   86.2852   10.0495 C.2     1  UNL1        0.2458
      8 O          61.1836   86.3686   11.5316 O.2     1  UNL1       -0.2701
      9 N          62.3133   85.2398    9.4823 N.am    1  UNL1       -0.3011
     10 H          62.4550   85.1851    8.5096 H       1  UNL1        0.1497
     11 C          63.0115   84.2778   10.3972 C.3     1  UNL1        0.0892
     12 C          64.1947   83.4260   10.0442 C.3     1  UNL1        0.0383
     13 C          64.5635   82.6204   11.2546 C.3     1  UNL1        0.0738
     14 N          63.6082   82.9743   12.3556 N.3     1  UNL1       -0.2725
     15 C          62.6491   83.9986   11.8257 C.3     1  UNL1        0.0919
     16 C          63.6116   82.4040   13.7430 C.3     1  UNL1        0.0576
     17 C          63.3657   80.9392   13.9524 C.3     1  UNL1        0.0173
     18 C          63.8608   83.2986   14.9210 C.3     1  UNL1        0.0173
     19 O          58.6066   90.1335    6.3901 O.3     1  UNL1       -0.4791
     20 N          60.9464   92.3604    3.2570 N.3     1  UNL1       -0.2737
     21 C          59.4871   92.6491    3.4496 C.3     1  UNL1        0.0758
     22 C          58.7072   91.9068    4.4940 C.3     1  UNL1        0.0609
     23 C          59.3865   90.8758    5.3457 C.3     1  UNL1        0.1687
     24 C          60.8458   90.5872    5.1532 C.3     1  UNL1        0.0609
     25 C          61.6257   91.3295    4.1088 C.3     1  UNL1        0.0758
     26 C          61.0544   94.1554    1.3818 C.3     1  UNL1        0.0173
     27 C          61.7264   93.1028    2.2127 C.3     1  UNL1        0.0576
     28 C          63.1783   92.7924    1.9992 C.3     1  UNL1        0.0173
@<TRIPOS>BOND
     1    26    27    1
     2    27    28    1
     3    27    20    1
     4    20    21    1
     5    21    22    1
     6    22    23    1
     7    23    19    1
     8    19     1    1
     9     1     2   ar
    10     2     3   ar
    11     3     4   ar
    12     4     7    1
    13     7     8    2
    14     7     9   am
    15     9    11    1
    16    11    12    1
    17    12    13    1
    18    13    14    1
    19    14    16    1
    20    16    17    1
    21    16    18    1
    22    14    15    1
    23     4     5   ar
    24     5     6   ar
    25    23    24    1
    26    24    25    1
    27    25    20    1
    28     6     1   ar
    29    15    11    1
    30     9    10    1
@<TRIPOS>MOLECULE
*****
 28 30 0 0 0
SMALL
GASTEIGER

@<TRIPOS>ATOM
      1 C          59.2150   92.2248    3.7996 C.ar    1  UNL1        0.1384
      2 C          60.5824   91.6998    4.1233 C.ar    1  UNL1        0.0370
      3 C          60.7604   90.7025    5.2295 C.ar    1  UNL1        0.0076
      4 C          59.5711   90.2302    6.0121 C.ar    1  UNL1        0.0536
      5 C          58.2037   90.7551    5.6884 C.ar    1  UNL1        0.0076
      6 C          58.0257   91.7524    4.5822 C.ar    1  UNL1        0.0370
      7 C          59.7491   89.2329    7.1183 C.2     1  UNL1        0.2458
      8 O          59.0211   87.9222    7.0709 O.2     1  UNL1       -0.2701
      9 N          60.6552   89.5462    8.2719 N.am    1  UNL1       -0.3011
     10 H          61.1330   90.4064    8.3031 H       1  UNL1        0.1497
     11 C          60.8332   88.5489    9.3781 C.3     1  UNL1        0.0892
     12 C          60.0997   88.5431   10.6865 C.3     1  UNL1        0.0383
     13 C          60.5891   87.3729   11.4872 C.3     1  UNL1        0.0738
     14 N          61.6252   86.6555   10.6735 N.3     1  UNL1       -0.2725
     15 C          61.7760   87.3823    9.3701 C.3     1  UNL1        0.0919
     16 C          62.3782   85.4269   11.0903 C.3     1  UNL1        0.0576
     17 C          62.4799   85.0662   12.5427 C.3     1  UNL1        0.0173
     18 C          63.0295   84.5590   10.0546 C.3     1  UNL1        0.0173
     19 O          59.0370   93.2220    2.6934 O.3     1  UNL1       -0.4791
     20 N          62.2476   93.7270   -0.4190 N.3     1  UNL1       -0.2737
     21 C          62.1718   94.6750    0.7410 C.3     1  UNL1        0.0758
     22 C          61.1016   94.5067    1.7785 C.3     1  UNL1        0.0609
     23 C          60.1072   93.3904    1.6560 C.3     1  UNL1        0.1687
     24 C          60.1831   92.4424    0.4960 C.3     1  UNL1        0.0609
     25 C          61.2533   92.6107   -0.5415 C.3     1  UNL1        0.0758
     26 C          63.2350   93.1389   -2.7490 C.3     1  UNL1        0.0173
     27 C          63.3179   93.8953   -1.4564 C.3     1  UNL1        0.0576
     28 C          64.4709   94.8201   -1.2013 C.3     1  UNL1        0.0173
@<TRIPOS>BOND
     1    26    27    1
     2    27    28    1
     3    27    20    1
     4    20    21    1
     5    21    22    1
     6    22    23    1
     7    23    19    1
     8    19     1    1
     9     1     2   ar
    10     2     3   ar
    11     3     4   ar
    12     4     7    1
    13     7     8    2
    14     7     9   am
    15     9    11    1
    16    11    12    1
    17    12    13    1
    18    13    14    1
    19    14    16    1
    20    16    17    1
    21    16    18    1
    22    14    15    1
    23     4     5   ar
    24     5     6   ar
    25    23    24    1
    26    24    25    1
    27    25    20    1
    28     6     1   ar
    29    15    11    1
    30     9    10    1
@<TRIPOS>MOLECULE
*****
 28 30 0 0 0
SMALL
GASTEIGER

@<TRIPOS>ATOM
      1 C          63.6125   94.8634    0.0069 C.ar    1  UNL1        0.1384
      2 C          64.4369   93.8778    0.7810 C.ar    1  UNL1        0.0370
      3 C          63.7925   93.0216    1.8306 C.ar    1  UNL1        0.0076
      4 C          62.3237   93.1509    2.1061 C.ar    1  UNL1        0.0536
      5 C          61.4993   94.1364    1.3322 C.ar    1  UNL1        0.0076
      6 C          62.1437   94.9927    0.2825 C.ar    1  UNL1        0.0370
      7 C          61.6793   92.2946    3.1558 C.2     1  UNL1        0.2458
      8 O          62.4878   91.2585    3.8787 O.2     1  UNL1       -0.2701
      9 N          60.2264   92.4746    3.4824 N.am    1  UNL1       -0.3011
     10 H          59.6957   93.1546    3.0079 H       1  UNL1        0.1497
     11 C          59.5821   91.6183    4.5320 C.3     1  UNL1        0.0892
     12 C          58.1132   91.5392    4.8258 C.3     1  UNL1        0.0383
     13 C          57.9168   90.5628    5.9474 C.3     1  UNL1        0.0738
     14 N          59.2643   90.0385    6.3469 N.3     1  UNL1       -0.2725
     15 C          60.2934   90.6909    5.4721 C.3     1  UNL1        0.0919
     16 C          59.5350   89.0376    7.4308 C.3     1  UNL1        0.0576
     17 C          60.2782   89.4523    8.6660 C.3     1  UNL1        0.0173
     18 C          59.0626   87.6221    7.2796 C.3     1  UNL1        0.0173
     19 O          64.2569   95.7195   -1.0426 O.3     1  UNL1       -0.4791
     20 N          64.6886   94.1801   -5.2490 N.3     1  UNL1       -0.2737
     21 C          65.1585   95.5622   -4.9043 C.3     1  UNL1        0.0758
     22 C          65.0146   96.0754   -3.5021 C.3     1  UNL1        0.0609
     23 C          64.4008   95.2064   -2.4447 C.3     1  UNL1        0.1687
     24 C          63.9310   93.8243   -2.7895 C.3     1  UNL1        0.0609
     25 C          64.0749   93.3111   -4.1916 C.3     1  UNL1        0.0758
     26 C          63.6133   93.3025   -7.4452 C.3     1  UNL1        0.0173
     27 C          64.8325   93.6670   -6.6511 C.3     1  UNL1        0.0576
     28 C          66.1956   93.5183   -7.2592 C.3     1  UNL1        0.0173
@<TRIPOS>BOND
     1    26    27    1
     2    27    28    1
     3    27    20    1
     4    20    21    1
     5    21    22    1
     6    22    23    1
     7    23    19    1
     8    19     1    1
     9     1     2   ar
    10     2     3   ar
    11     3     4   ar
    12     4     7    1
    13     7     8    2
    14     7     9   am
    15     9    11    1
    16    11    12    1
    17    12    13    1
    18    13    14    1
    19    14    16    1
    20    16    17    1
    21    16    18    1
    22    14    15    1
    23     4     5   ar
    24     5     6   ar
    25    23    24    1
    26    24    25    1
    27    25    20    1
    28     6     1   ar
    29    15    11    1
    30     9    10    1
@<TRIPOS>MOLECULE
*****
 28 30 0 0 0
SMALL
GASTEIGER

@<TRIPOS>ATOM
      1 C          59.2420   89.8930    6.3683 C.ar    1  UNL1        0.1384
      2 C          57.9960   90.5412    5.8415 C.ar    1  UNL1        0.0370
      3 C          58.0856   91.5489    4.7340 C.ar    1  UNL1        0.0076
      4 C          59.4211   91.9084    4.1533 C.ar    1  UNL1        0.0536
      5 C          60.6670   91.2603    4.6801 C.ar    1  UNL1        0.0076
      6 C          60.5775   90.2525    5.7876 C.ar    1  UNL1        0.0370
      7 C          59.5106   92.9162    3.0458 C.2     1  UNL1        0.2458
      8 O          59.9645   94.3153    3.3398 O.2     1  UNL1       -0.2701
      9 N          59.1462   92.5248    1.6444 N.am    1  UNL1       -0.3011
     10 H          58.8482   91.6065    1.4515 H       1  UNL1        0.1497
     11 C          59.2357   93.5325    0.5370 C.3     1  UNL1        0.0892
     12 C          60.1238   94.7411    0.5144 C.3     1  UNL1        0.0383
     13 C          59.8898   95.4642   -0.7789 C.3     1  UNL1        0.0738
     14 N          58.8570   94.7024   -1.5555 N.3     1  UNL1       -0.2725
     15 C          58.4528   93.5086   -0.7422 C.3     1  UNL1        0.0919
     16 C          58.3224   95.0700   -2.9079 C.3     1  UNL1        0.0576
     17 C          57.7025   96.4180   -3.1284 C.3     1  UNL1        0.0173
     18 C          58.4076   94.0895   -4.0399 C.3     1  UNL1        0.0173
     19 O          59.1525   88.8853    7.4757 O.3     1  UNL1       -0.4791
     20 N          62.0221   89.0842   10.9363 N.3     1  UNL1       -0.2737
     21 C          61.0808   90.2226   10.6762 C.3     1  UNL1        0.0758
     22 C          60.1242   90.1563    9.5227 C.3     1  UNL1        0.0609
     23 C          60.1090   88.9516    8.6293 C.3     1  UNL1        0.1687
     24 C          61.0504   87.8131    8.8893 C.3     1  UNL1        0.0609
     25 C          62.0069   87.8794   10.0429 C.3     1  UNL1        0.0758
     26 C          63.4774   90.4792   12.5751 C.3     1  UNL1        0.0173
     27 C          62.9787   89.1505   12.0898 C.3     1  UNL1        0.0576
     28 C          63.4365   87.8880   12.7580 C.3     1  UNL1        0.0173
@<TRIPOS>BOND
     1    26    27    1
     2    27    28    1
     3    27    20    1
     4    20    21    1
     5    21    22    1
     6    22    23    1
     7    23    19    1
     8    19     1    1
     9     1     2   ar
    10     2     3   ar
    11     3     4   ar
    12     4     7    1
    13     7     8    2
    14     7     9   am
    15     9    11    1
    16    11    12    1
    17    12    13    1
    18    13    14    1
    19    14    16    1
    20    16    17    1
    21    16    18    1
    22    14    15    1
    23     4     5   ar
    24     5     6   ar
    25    23    24    1
    26    24    25    1
    27    25    20    1
    28     6     1   ar
    29    15    11    1
    30     9    10    1
