@<TRIPOS>MOLECULE
*****
 37 41 0 0 0
SMALL
GASTEIGER

@<TRIPOS>ATOM
      1 N          63.4885   85.9794   13.0211 N.ar    1  UNL1       -0.2986
      2 C          62.8474   85.0999   11.9889 C.ar    1  UNL1        0.1245
      3 C          62.2269   85.9837   10.9477 C.ar    1  UNL1        0.1157
      4 C          62.4844   87.4093   11.3365 C.ar    1  UNL1        0.0967
      5 C          63.2641   87.4067   12.6179 C.ar    1  UNL1        0.1354
      6 C          63.6692   88.7043   13.2521 C.ar    1  UNL1        0.2819
      7 O          64.4488   88.7017   14.5335 O.2     1  UNL1       -0.2652
      8 N          63.2944   90.0046   12.6048 N.ar    1  UNL1       -0.2417
      9 C          62.5147   90.0072   11.3234 C.ar    1  UNL1        0.3342
     10 O          62.1400   91.3074   10.6761 O.2     1  UNL1       -0.2462
     11 N          62.1097   88.7096   10.6892 N.ar    1  UNL1       -0.2770
     12 C          61.3300   88.7122    9.4078 C.3     1  UNL1        0.1351
     13 N          62.8299   83.6000   11.9964 N.pl3   1  UNL1       -0.2925
     14 C          63.3644   82.9367   10.7618 C.3     1  UNL1        0.0936
     15 C          63.4813   81.4714   10.4634 C.3     1  UNL1        0.0385
     16 C          63.0925   80.3074   11.3260 C.3     1  UNL1        0.0704
     17 N          62.4908   80.3213   12.7000 N.3     1  UNL1       -0.2960
     18 C          62.1293   81.5026   13.5507 C.3     1  UNL1        0.0903
     19 C          62.2802   82.9619   13.2376 C.3     1  UNL1        0.1092
     20 H          63.1450   79.7859   13.2708 H       1  UNL1        0.1233
     21 C          61.4799   85.5227    9.7314 C.1     1  UNL1        0.1047
     22 N          60.7330   85.0616    8.5149 N.1     1  UNL1       -0.1907
     23 C          64.2246   85.5135   14.2422 C.3     1  UNL1        0.1842
     24 C          62.7082   86.6036   18.3364 C.3     1  UNL1        0.0900
     25 C          63.2137   86.2402   16.9717 C.1     1  UNL1       -0.0881
     26 C          63.7191   85.8768   15.6069 C.1     1  UNL1       -0.0656
     27 C          63.6994   91.3022   13.2390 C.3     1  UNL1        0.1593
     28 C          65.0266   91.9172   12.9069 C.ar    1  UNL1        0.0821
     29 N          65.4001   92.1679   11.4760 N.ar    1  UNL1       -0.2462
     30 C          66.7273   92.7829   11.1439 C.ar    1  UNL1        0.0985
     31 C          67.6810   93.1473   12.2428 C.ar    1  UNL1        0.0207
     32 C          67.3076   92.8966   13.6738 C.ar    1  UNL1        0.0027
     33 C          68.2613   93.2610   14.7727 C.ar    1  UNL1        0.0001
     34 C          67.8879   93.0103   16.2036 C.ar    1  UNL1        0.0000
     35 C          66.5607   92.3953   16.5357 C.ar    1  UNL1        0.0000
     36 C          65.6069   92.0309   15.4368 C.ar    1  UNL1        0.0012
     37 C          65.9804   92.2816   14.0059 C.ar    1  UNL1        0.0155
@<TRIPOS>BOND
     1    24    25    1
     2    25    26    3
     3    26    23    1
     4    23     1    1
     5     1     2   ar
     6     2    13    1
     7    13    14    1
     8    14    15    1
     9    15    16    1
    10    16    17    1
    11    17    18    1
    12    18    19    1
    13     2     3   ar
    14     3    21    1
    15    21    22    3
    16     3     4   ar
    17     4     5   ar
    18     5     6   ar
    19     6     7    2
    20     6     8   ar
    21     8    27    1
    22    27    28    1
    23    28    29   ar
    24    29    30   ar
    25    30    31   ar
    26    31    32   ar
    27    32    33   ar
    28    33    34   ar
    29    34    35   ar
    30    35    36   ar
    31    36    37   ar
    32     8     9   ar
    33     9    10    2
    34     9    11   ar
    35    11    12    1
    36     5     1   ar
    37    37    28   ar
    38    19    13    1
    39    11     4   ar
    40    37    32   ar
    41    17    20    1
@<TRIPOS>MOLECULE
*****
 37 41 0 0 0
SMALL
GASTEIGER

@<TRIPOS>ATOM
      1 N          63.5341   86.0392   13.2235 N.ar    1  UNL1       -0.2986
      2 C          62.8977   85.1875   12.1655 C.ar    1  UNL1        0.1245
      3 C          62.3171   86.0981   11.1245 C.ar    1  UNL1        0.1157
      4 C          62.5947   87.5127   11.5391 C.ar    1  UNL1        0.0967
      5 C          63.3469   87.4762   12.8364 C.ar    1  UNL1        0.1354
      6 C          63.7642   88.7564   13.4976 C.ar    1  UNL1        0.2819
      7 O          64.5164   88.7200   14.7949 O.2     1  UNL1       -0.2652
      8 N          63.4293   90.0729   12.8616 N.ar    1  UNL1       -0.2417
      9 C          62.6771   90.1093   11.5643 C.ar    1  UNL1        0.3342
     10 O          62.3421   91.4258   10.9282 O.2     1  UNL1       -0.2462
     11 N          62.2598   88.8292   10.9031 N.ar    1  UNL1       -0.2770
     12 C          61.5076   88.8656    9.6058 C.3     1  UNL1        0.1351
     13 N          62.8501   83.6883   12.1510 N.pl3   1  UNL1       -0.2925
     14 C          62.2962   83.0427   13.3865 C.3     1  UNL1        0.0936
     15 C          62.1181   81.5824   13.6791 C.3     1  UNL1        0.0385
     16 C          62.4500   80.4069   12.8085 C.3     1  UNL1        0.0704
     17 N          63.0419   80.4014   11.4302 N.3     1  UNL1       -0.2960
     18 C          63.4481   81.5700   10.5822 C.3     1  UNL1        0.0903
     19 C          63.3628   83.0329   10.9029 C.3     1  UNL1        0.1092
     20 H          62.3611   79.8976   10.8618 H       1  UNL1        0.1233
     21 C          61.5870   85.6695    9.8862 C.1     1  UNL1        0.1047
     22 N          60.8569   85.2410    8.6479 N.1     1  UNL1       -0.1907
     23 C          64.2348   85.5414   14.4528 C.3     1  UNL1        0.1842
     24 C          62.6791   86.6399   18.5300 C.3     1  UNL1        0.0900
     25 C          63.1977   86.2737   17.1709 C.1     1  UNL1       -0.0881
     26 C          63.7162   85.9075   15.8118 C.1     1  UNL1       -0.0656
     27 C          63.8465   91.3530   13.5227 C.3     1  UNL1        0.1593
     28 C          65.3016   91.6450   13.7406 C.ar    1  UNL1        0.0821
     29 N          65.8777   91.5944   15.1246 N.ar    1  UNL1       -0.2462
     30 C          67.3327   91.8865   15.3425 C.ar    1  UNL1        0.0985
     31 C          68.2118   92.2291   14.1764 C.ar    1  UNL1        0.0207
     32 C          67.6357   92.2797   12.7923 C.ar    1  UNL1        0.0027
     33 C          68.5147   92.6223   11.6262 C.ar    1  UNL1        0.0001
     34 C          67.9387   92.6729   10.2421 C.ar    1  UNL1        0.0000
     35 C          66.4836   92.3809   10.0243 C.ar    1  UNL1        0.0000
     36 C          65.6046   92.0383   11.1904 C.ar    1  UNL1        0.0012
     37 C          66.1806   91.9877   12.5744 C.ar    1  UNL1        0.0155
@<TRIPOS>BOND
     1    24    25    1
     2    25    26    3
     3    26    23    1
     4    23     1    1
     5     1     2   ar
     6     2    13    1
     7    13    14    1
     8    14    15    1
     9    15    16    1
    10    16    17    1
    11    17    18    1
    12    18    19    1
    13     2     3   ar
    14     3    21    1
    15    21    22    3
    16     3     4   ar
    17     4     5   ar
    18     5     6   ar
    19     6     7    2
    20     6     8   ar
    21     8    27    1
    22    27    28    1
    23    28    29   ar
    24    29    30   ar
    25    30    31   ar
    26    31    32   ar
    27    32    33   ar
    28    33    34   ar
    29    34    35   ar
    30    35    36   ar
    31    36    37   ar
    32     8     9   ar
    33     9    10    2
    34     9    11   ar
    35    11    12    1
    36     5     1   ar
    37    37    28   ar
    38    19    13    1
    39    11     4   ar
    40    37    32   ar
    41    17    20    1
@<TRIPOS>MOLECULE
*****
 37 41 0 0 0
SMALL
GASTEIGER

@<TRIPOS>ATOM
      1 N          63.6306   86.4130   13.2544 N.ar    1  UNL1       -0.2986
      2 C          62.8860   85.4726   12.3537 C.ar    1  UNL1        0.1245
      3 C          62.2922   86.2755   11.2344 C.ar    1  UNL1        0.1157
      4 C          62.6698   87.7120   11.4434 C.ar    1  UNL1        0.0967
      5 C          63.4970   87.7970   12.6918 C.ar    1  UNL1        0.1354
      6 C          64.0217   89.1237   13.1550 C.ar    1  UNL1        0.2819
      7 O          64.8488   89.2087   14.4034 O.2     1  UNL1       -0.2652
      8 N          63.7192   90.3655   12.3698 N.ar    1  UNL1       -0.2417
      9 C          62.8919   90.2805   11.1214 C.ar    1  UNL1        0.3342
     10 O          62.5894   91.5222   10.3362 O.2     1  UNL1       -0.2462
     11 N          62.3673   88.9538   10.6582 N.ar    1  UNL1       -0.2770
     12 C          61.5401   88.8688    9.4098 C.3     1  UNL1        0.1351
     13 N          62.7578   83.9896   12.5396 N.pl3   1  UNL1       -0.2925
     14 C          63.1897   83.1480   11.3755 C.3     1  UNL1        0.0936
     15 C          63.1852   81.6534   11.2493 C.3     1  UNL1        0.0385
     16 C          62.7475   80.6311   12.2561 C.3     1  UNL1        0.0704
     17 N          62.2063   80.8511   13.6376 N.3     1  UNL1       -0.2960
     18 C          61.9692   82.1476   14.3537 C.3     1  UNL1        0.0903
     19 C          62.2146   83.5445   13.8650 C.3     1  UNL1        0.1092
     20 H          62.8423   80.3357   14.2462 H       1  UNL1        0.1233
     21 C          61.4659   85.7364   10.1046 C.1     1  UNL1        0.1047
     22 N          60.6396   85.1974    8.9746 N.1     1  UNL1       -0.1907
     23 C          64.3777   86.0355   14.4992 C.3     1  UNL1        0.1842
     24 C          62.5560   86.8135   18.5398 C.3     1  UNL1        0.0900
     25 C          63.1632   86.5541   17.1929 C.1     1  UNL1       -0.0881
     26 C          63.7705   86.2949   15.8460 C.1     1  UNL1       -0.0656
     27 C          64.2438   91.6922   12.8330 C.3     1  UNL1        0.1593
     28 C          64.6642   91.8752   14.2612 C.ar    1  UNL1        0.0821
     29 N          63.6438   91.8053   15.3583 N.ar    1  UNL1       -0.2462
     30 C          64.0642   91.9884   16.7865 C.ar    1  UNL1        0.0985
     31 C          65.5051   92.2414   17.1176 C.ar    1  UNL1        0.0207
     32 C          66.5257   92.3114   16.0204 C.ar    1  UNL1        0.0027
     33 C          67.9666   92.5644   16.3515 C.ar    1  UNL1        0.0001
     34 C          68.9871   92.6343   15.2544 C.ar    1  UNL1        0.0000
     35 C          68.5667   92.4512   13.8263 C.ar    1  UNL1        0.0000
     36 C          67.1257   92.1982   13.4952 C.ar    1  UNL1        0.0012
     37 C          66.1053   92.1283   14.5923 C.ar    1  UNL1        0.0155
@<TRIPOS>BOND
     1    24    25    1
     2    25    26    3
     3    26    23    1
     4    23     1    1
     5     1     2   ar
     6     2    13    1
     7    13    14    1
     8    14    15    1
     9    15    16    1
    10    16    17    1
    11    17    18    1
    12    18    19    1
    13     2     3   ar
    14     3    21    1
    15    21    22    3
    16     3     4   ar
    17     4     5   ar
    18     5     6   ar
    19     6     7    2
    20     6     8   ar
    21     8    27    1
    22    27    28    1
    23    28    29   ar
    24    29    30   ar
    25    30    31   ar
    26    31    32   ar
    27    32    33   ar
    28    33    34   ar
    29    34    35   ar
    30    35    36   ar
    31    36    37   ar
    32     8     9   ar
    33     9    10    2
    34     9    11   ar
    35    11    12    1
    36     5     1   ar
    37    37    28   ar
    38    19    13    1
    39    11     4   ar
    40    37    32   ar
    41    17    20    1
@<TRIPOS>MOLECULE
*****
 37 41 0 0 0
SMALL
GASTEIGER

@<TRIPOS>ATOM
      1 N          60.7431   93.8046   -0.9829 N.ar    1  UNL1       -0.2986
      2 C          62.0977   94.4273   -1.1485 C.ar    1  UNL1        0.1245
      3 C          62.2365   94.8619   -2.5774 C.ar    1  UNL1        0.1157
      4 C          60.9678   94.5079   -3.2949 C.ar    1  UNL1        0.0967
      5 C          60.0448   93.8545   -2.3095 C.ar    1  UNL1        0.1354
      6 C          58.6877   93.3892   -2.7475 C.ar    1  UNL1        0.2819
      7 O          57.7647   92.7358   -1.7621 O.2     1  UNL1       -0.2652
      8 N          58.2536   93.5775   -4.1709 N.ar    1  UNL1       -0.2417
      9 C          59.1766   94.2310   -5.1563 C.ar    1  UNL1        0.3342
     10 O          58.7425   94.4192   -6.5798 O.2     1  UNL1       -0.2462
     11 N          60.5337   94.6962   -4.7183 N.ar    1  UNL1       -0.2770
     12 C          61.4566   95.3496   -5.7038 C.3     1  UNL1        0.1351
     13 N          63.1319   94.5872   -0.0737 N.pl3   1  UNL1       -0.2925
     14 C          62.9436   95.7609    0.8411 C.3     1  UNL1        0.0936
     15 C          63.7945   96.1896    1.9996 C.3     1  UNL1        0.0385
     16 C          65.0438   95.5504    2.5295 C.3     1  UNL1        0.0704
     17 N          65.7507   94.3247    2.0317 N.3     1  UNL1       -0.2960
     18 C          65.3830   93.4354    0.8810 C.3     1  UNL1        0.0903
     19 C          64.2174   93.5522   -0.0560 C.3     1  UNL1        0.1092
     20 H          65.7788   93.7007    2.8380 H       1  UNL1        0.1233
     21 C          63.4339   95.5328   -3.1825 C.1     1  UNL1        0.1047
     22 N          64.6314   96.2037   -3.7876 N.1     1  UNL1       -0.1907
     23 C          60.1848   93.2325    0.2863 C.3     1  UNL1        0.1842
     24 C          62.9392   91.3623    3.3140 C.3     1  UNL1        0.0900
     25 C          62.0210   91.9857    2.3048 C.1     1  UNL1       -0.0881
     26 C          61.1030   92.6091    1.2955 C.1     1  UNL1       -0.0656
     27 C          56.8965   93.1123   -4.6089 C.3     1  UNL1        0.1593
     28 C          55.8698   94.1102   -5.0562 C.ar    1  UNL1        0.0821
     29 N          55.6554   94.3613   -6.5193 N.ar    1  UNL1       -0.2462
     30 C          54.6287   95.3592   -6.9666 C.ar    1  UNL1        0.0985
     31 C          53.8163   96.1060   -5.9507 C.ar    1  UNL1        0.0207
     32 C          54.0306   95.8550   -4.4874 C.ar    1  UNL1        0.0027
     33 C          53.2182   96.6018   -3.4714 C.ar    1  UNL1        0.0001
     34 C          53.4325   96.3507   -2.0082 C.ar    1  UNL1        0.0000
     35 C          54.4593   95.3528   -1.5610 C.ar    1  UNL1        0.0000
     36 C          55.2717   94.6060   -2.5769 C.ar    1  UNL1        0.0012
     37 C          55.0573   94.8571   -4.0401 C.ar    1  UNL1        0.0155
@<TRIPOS>BOND
     1    24    25    1
     2    25    26    3
     3    26    23    1
     4    23     1    1
     5     1     2   ar
     6     2    13    1
     7    13    14    1
     8    14    15    1
     9    15    16    1
    10    16    17    1
    11    17    18    1
    12    18    19    1
    13     2     3   ar
    14     3    21    1
    15    21    22    3
    16     3     4   ar
    17     4     5   ar
    18     5     6   ar
    19     6     7    2
    20     6     8   ar
    21     8    27    1
    22    27    28    1
    23    28    29   ar
    24    29    30   ar
    25    30    31   ar
    26    31    32   ar
    27    32    33   ar
    28    33    34   ar
    29    34    35   ar
    30    35    36   ar
    31    36    37   ar
    32     8     9   ar
    33     9    10    2
    34     9    11   ar
    35    11    12    1
    36     5     1   ar
    37    37    28   ar
    38    19    13    1
    39    11     4   ar
    40    37    32   ar
    41    17    20    1
@<TRIPOS>MOLECULE
*****
 37 41 0 0 0
SMALL
GASTEIGER

@<TRIPOS>ATOM
      1 N          63.0003   85.6625   11.5263 N.ar    1  UNL1       -0.2986
      2 C          63.1783   84.4438   12.3827 C.ar    1  UNL1        0.1245
      3 C          63.4335   84.8988   13.7890 C.ar    1  UNL1        0.1157
      4 C          63.4133   86.3986   13.8019 C.ar    1  UNL1        0.0967
      5 C          63.1456   86.8705   12.4035 C.ar    1  UNL1        0.1354
      6 C          63.0686   88.3395   12.1094 C.ar    1  UNL1        0.2819
      7 O          62.8009   88.8114   10.7110 O.2     1  UNL1       -0.2652
      8 N          63.2594   89.3364   13.2138 N.ar    1  UNL1       -0.2417
      9 C          63.5271   88.8644   14.6123 C.ar    1  UNL1        0.3342
     10 O          63.7179   89.8613   15.7167 O.2     1  UNL1       -0.2462
     11 N          63.6040   87.3955   14.9063 N.ar    1  UNL1       -0.2770
     12 C          63.8718   86.9236   16.3047 C.3     1  UNL1        0.1351
     13 N          63.1125   83.0201   11.9148 N.pl3   1  UNL1       -0.2925
     14 C          63.6672   82.7588   10.5458 C.3     1  UNL1        0.0936
     15 C          63.7472   81.4589    9.8016 C.3     1  UNL1        0.0385
     16 C          63.2922   80.0992   10.2426 C.3     1  UNL1        0.0704
     17 N          62.6450   79.7038   11.5367 N.3     1  UNL1       -0.2960
     18 C          62.2928   80.5702   12.7094 C.3     1  UNL1        0.0903
     19 C          62.5009   82.0462   12.8777 C.3     1  UNL1        0.1092
     20 H          63.2619   78.9892   11.9231 H       1  UNL1        0.1233
     21 C          63.6678   84.0101   14.9744 C.1     1  UNL1        0.1047
     22 N          63.9022   83.1212   16.1598 N.1     1  UNL1       -0.1907
     23 C          62.7254   85.6714   10.0518 C.3     1  UNL1        0.1842
     24 C          58.8282   87.3000    8.4993 C.3     1  UNL1        0.0900
     25 C          60.1273   86.7571    9.0168 C.1     1  UNL1       -0.0881
     26 C          61.4263   86.2143    9.5343 C.1     1  UNL1       -0.0656
     27 C          63.1825   90.8053   12.9198 C.3     1  UNL1        0.1593
     28 C          64.3994   91.5387   12.4392 C.ar    1  UNL1        0.0821
     29 N          64.6117   91.7580   10.9706 N.ar    1  UNL1       -0.2462
     30 C          65.8287   92.4914   10.4900 C.ar    1  UNL1        0.0985
     31 C          66.8334   93.0056   11.4780 C.ar    1  UNL1        0.0207
     32 C          66.6212   92.7864   12.9467 C.ar    1  UNL1        0.0027
     33 C          67.6259   93.3005   13.9346 C.ar    1  UNL1        0.0001
     34 C          67.4136   93.0813   15.4032 C.ar    1  UNL1        0.0000
     35 C          66.1966   92.3479   15.8839 C.ar    1  UNL1        0.0000
     36 C          65.1919   91.8337   14.8959 C.ar    1  UNL1        0.0012
     37 C          65.4042   92.0529   13.4273 C.ar    1  UNL1        0.0155
@<TRIPOS>BOND
     1    24    25    1
     2    25    26    3
     3    26    23    1
     4    23     1    1
     5     1     2   ar
     6     2    13    1
     7    13    14    1
     8    14    15    1
     9    15    16    1
    10    16    17    1
    11    17    18    1
    12    18    19    1
    13     2     3   ar
    14     3    21    1
    15    21    22    3
    16     3     4   ar
    17     4     5   ar
    18     5     6   ar
    19     6     7    2
    20     6     8   ar
    21     8    27    1
    22    27    28    1
    23    28    29   ar
    24    29    30   ar
    25    30    31   ar
    26    31    32   ar
    27    32    33   ar
    28    33    34   ar
    29    34    35   ar
    30    35    36   ar
    31    36    37   ar
    32     8     9   ar
    33     9    10    2
    34     9    11   ar
    35    11    12    1
    36     5     1   ar
    37    37    28   ar
    38    19    13    1
    39    11     4   ar
    40    37    32   ar
    41    17    20    1
