@<TRIPOS>MOLECULE
*****
 28 31 0 0 0
SMALL
GASTEIGER

@<TRIPOS>ATOM
      1 C          62.5729   89.2448   12.3275 C.3     1  UNL1        0.0233
      2 C          63.7544   90.0376   12.8024 C.3     1  UNL1        0.0953
      3 C          64.2150   91.2354   12.0257 C.3     1  UNL1        0.1106
      4 N          65.3965   92.0282   12.5006 N.pl3   1  UNL1       -0.3041
      5 C          66.1174   91.6233   13.7521 C.3     1  UNL1        0.1123
      6 C          65.6568   90.4255   14.5288 C.3     1  UNL1        0.1149
      7 N          64.4753   89.6327   14.0539 N.pl3   1  UNL1       -0.2777
      8 C          64.0147   88.4349   14.8306 C.ar    1  UNL1        0.2035
      9 N          64.0460   87.0745   14.1996 N.ar    1  UNL1       -0.2133
     10 C          63.5855   85.8767   14.9762 C.ar    1  UNL1        0.1065
     11 C          63.0935   86.0394   16.3840 C.ar    1  UNL1        0.0815
     12 C          63.0622   87.3998   17.0150 C.ar    1  UNL1        0.2646
     13 O          62.5703   87.5625   18.4226 O.2     1  UNL1       -0.2668
     14 N          63.5228   88.5976   16.2383 N.ar    1  UNL1       -0.2667
     15 C          63.4914   89.9581   16.8693 C.3     1  UNL1        0.1363
     16 C          63.6168   84.5162   14.3452 C.ar    1  UNL1        0.1024
     17 C          62.7153   83.4317   14.8559 C.ar    1  UNL1        0.0414
     18 C          62.7466   82.0712   14.2249 C.ar    1  UNL1        0.1023
     19 N          63.6795   81.7953   13.0832 N.ar    1  UNL1       -0.2224
     20 C          64.5812   82.8799   12.5725 C.ar    1  UNL1        0.1989
     21 N          64.5498   84.2404   13.2035 N.ar    1  UNL1       -0.2224
     22 C          65.8571   93.2260   11.7239 C.ar    1  UNL1        0.0480
     23 C          66.1605   93.0995   10.2604 C.ar    1  UNL1        0.0154
     24 C          66.6210   94.2972    9.4836 C.ar    1  UNL1        0.0127
     25 C          66.7783   95.6215   10.1705 C.ar    1  UNL1        0.0578
     26 CL         67.2389   96.8192    9.3938 Cl      1  UNL1       -0.0822
     27 C          66.4749   95.7480   11.6340 C.ar    1  UNL1        0.0127
     28 C          66.0143   94.5502   12.4107 C.ar    1  UNL1        0.0154
@<TRIPOS>BOND
     1     2     1    1
     2     2     3    1
     3     3     4    1
     4     4    22    1
     5    22    23   ar
     6    23    24   ar
     7    24    25   ar
     8    25    26    1
     9    25    27   ar
    10    27    28   ar
    11     4     5    1
    12     5     6    1
    13     6     7    1
    14     7     8    1
    15     8     9   ar
    16     9    10   ar
    17    10    16    1
    18    16    17   ar
    19    17    18   ar
    20    18    19   ar
    21    19    20   ar
    22    20    21   ar
    23    10    11   ar
    24    11    12   ar
    25    12    13    2
    26    12    14   ar
    27    14    15    1
    28     7     2    1
    29    14     8   ar
    30    28    22   ar
    31    21    16   ar
@<TRIPOS>MOLECULE
*****
 28 31 0 0 0
SMALL
GASTEIGER

@<TRIPOS>ATOM
      1 C          62.7634   88.8259   11.7177 C.3     1  UNL1        0.0233
      2 C          63.2904   87.7877   12.6634 C.3     1  UNL1        0.0953
      3 C          63.0040   86.3358   12.4186 C.3     1  UNL1        0.1106
      4 N          63.5309   85.2976   13.3643 N.pl3   1  UNL1       -0.3041
      5 C          64.3444   85.7112   14.5548 C.3     1  UNL1        0.1123
      6 C          64.6308   87.1631   14.7995 C.3     1  UNL1        0.1149
      7 N          64.1038   88.2013   13.8538 N.pl3   1  UNL1       -0.2777
      8 C          64.3903   89.6533   14.0986 C.ar    1  UNL1        0.2035
      9 N          65.1011   90.4637   13.0555 N.ar    1  UNL1       -0.2133
     10 C          65.3876   91.9156   13.3003 C.ar    1  UNL1        0.1065
     11 C          64.9633   92.5571   14.5881 C.ar    1  UNL1        0.0815
     12 C          64.2525   91.7467   15.6312 C.ar    1  UNL1        0.2646
     13 O          63.8282   92.3881   16.9190 O.2     1  UNL1       -0.2668
     14 N          63.9660   90.2947   15.3864 N.ar    1  UNL1       -0.2667
     15 C          63.2552   89.4843   16.4295 C.3     1  UNL1        0.1363
     16 C          66.0984   92.7260   12.2572 C.ar    1  UNL1        0.1024
     17 C          67.0400   92.0568   11.3004 C.ar    1  UNL1        0.0414
     18 C          67.7508   92.8673   10.2573 C.ar    1  UNL1        0.1023
     19 N          67.5200   94.3469   10.1711 N.ar    1  UNL1       -0.2224
     20 C          66.5784   95.0161   11.1280 C.ar    1  UNL1        0.1989
     21 N          65.8676   94.2057   12.1710 N.ar    1  UNL1       -0.2224
     22 C          63.2444   83.8456   13.1195 C.ar    1  UNL1        0.0480
     23 C          63.4672   83.2564   11.7582 C.ar    1  UNL1        0.0154
     24 C          63.1807   81.8045   11.5134 C.ar    1  UNL1        0.0127
     25 C          62.6715   80.9418   12.6299 C.ar    1  UNL1        0.0578
     26 CL         62.3851   79.4899   12.3851 Cl      1  UNL1       -0.0822
     27 C          62.4488   81.5310   13.9912 C.ar    1  UNL1        0.0127
     28 C          62.7353   82.9830   14.2360 C.ar    1  UNL1        0.0154
@<TRIPOS>BOND
     1     2     1    1
     2     2     3    1
     3     3     4    1
     4     4    22    1
     5    22    23   ar
     6    23    24   ar
     7    24    25   ar
     8    25    26    1
     9    25    27   ar
    10    27    28   ar
    11     4     5    1
    12     5     6    1
    13     6     7    1
    14     7     8    1
    15     8     9   ar
    16     9    10   ar
    17    10    16    1
    18    16    17   ar
    19    17    18   ar
    20    18    19   ar
    21    19    20   ar
    22    20    21   ar
    23    10    11   ar
    24    11    12   ar
    25    12    13    2
    26    12    14   ar
    27    14    15    1
    28     7     2    1
    29    14     8   ar
    30    28    22   ar
    31    21    16   ar
@<TRIPOS>MOLECULE
*****
 28 31 0 0 0
SMALL
GASTEIGER

@<TRIPOS>ATOM
      1 C          66.8636   90.8963   14.8498 C.3     1  UNL1        0.0233
      2 C          66.0497   91.2242   13.6332 C.3     1  UNL1        0.0953
      3 C          66.5175   92.2849   12.6814 C.3     1  UNL1        0.1106
      4 N          65.7036   92.6128   11.4648 N.pl3   1  UNL1       -0.3041
      5 C          64.4219   91.8799   11.2000 C.3     1  UNL1        0.1123
      6 C          63.9541   90.8192   12.1518 C.3     1  UNL1        0.1149
      7 N          64.7680   90.4913   13.3684 N.pl3   1  UNL1       -0.2777
      8 C          64.3002   89.4305   14.3202 C.ar    1  UNL1        0.2035
      9 N          64.2740   87.9942   13.8885 N.ar    1  UNL1       -0.2133
     10 C          63.8061   86.9334   14.8403 C.ar    1  UNL1        0.1065
     11 C          63.3645   87.3089   16.2238 C.ar    1  UNL1        0.0815
     12 C          63.3908   88.7452   16.6555 C.ar    1  UNL1        0.2646
     13 O          62.9492   89.1207   18.0389 O.2     1  UNL1       -0.2668
     14 N          63.8586   89.8060   15.7037 N.ar    1  UNL1       -0.2667
     15 C          63.8848   91.2423   16.1354 C.3     1  UNL1        0.1363
     16 C          63.7799   85.4971   14.4086 C.ar    1  UNL1        0.1024
     17 C          63.4759   85.1483   12.9817 C.ar    1  UNL1        0.0414
     18 C          63.4497   83.7120   12.5500 C.ar    1  UNL1        0.1023
     19 N          63.7275   82.6246   13.5451 N.ar    1  UNL1       -0.2224
     20 C          64.0315   82.9734   14.9721 C.ar    1  UNL1        0.1989
     21 N          64.0577   84.4097   15.4038 N.ar    1  UNL1       -0.2224
     22 C          66.1714   93.6736   10.5130 C.ar    1  UNL1        0.0480
     23 C          65.5390   95.0336   10.5359 C.ar    1  UNL1        0.0154
     24 C          66.0068   96.0944    9.5841 C.ar    1  UNL1        0.0127
     25 C          67.1071   95.7952    8.6094 C.ar    1  UNL1        0.0578
     26 CL         67.5748   96.8560    7.6577 Cl      1  UNL1       -0.0822
     27 C          67.7395   94.4352    8.5865 C.ar    1  UNL1        0.0127
     28 C          67.2716   93.3744    9.5384 C.ar    1  UNL1        0.0154
@<TRIPOS>BOND
     1     2     1    1
     2     2     3    1
     3     3     4    1
     4     4    22    1
     5    22    23   ar
     6    23    24   ar
     7    24    25   ar
     8    25    26    1
     9    25    27   ar
    10    27    28   ar
    11     4     5    1
    12     5     6    1
    13     6     7    1
    14     7     8    1
    15     8     9   ar
    16     9    10   ar
    17    10    16    1
    18    16    17   ar
    19    17    18   ar
    20    18    19   ar
    21    19    20   ar
    22    20    21   ar
    23    10    11   ar
    24    11    12   ar
    25    12    13    2
    26    12    14   ar
    27    14    15    1
    28     7     2    1
    29    14     8   ar
    30    28    22   ar
    31    21    16   ar
@<TRIPOS>MOLECULE
*****
 28 31 0 0 0
SMALL
GASTEIGER

@<TRIPOS>ATOM
      1 C          65.4533   86.2007   15.2763 C.3     1  UNL1        0.0233
      2 C          64.4948   85.8993   14.1625 C.3     1  UNL1        0.0953
      3 C          64.3377   84.4918   13.6686 C.3     1  UNL1        0.1106
      4 N          63.3792   84.1904   12.5548 N.pl3   1  UNL1       -0.3041
      5 C          62.5779   85.2965   11.9350 C.3     1  UNL1        0.1123
      6 C          62.7350   86.7041   12.4290 C.3     1  UNL1        0.1149
      7 N          63.6935   87.0055   13.5427 N.pl3   1  UNL1       -0.2777
      8 C          63.8506   88.4132   14.0366 C.ar    1  UNL1        0.2035
      9 N          64.3459   89.4826   13.1088 N.ar    1  UNL1       -0.2133
     10 C          64.5030   90.8902   13.6026 C.ar    1  UNL1        0.1065
     11 C          64.1649   91.2284   15.0244 C.ar    1  UNL1        0.0815
     12 C          63.6696   90.1589   15.9523 C.ar    1  UNL1        0.2646
     13 O          63.3314   90.4970   17.3740 O.2     1  UNL1       -0.2668
     14 N          63.5125   88.7513   15.4583 N.ar    1  UNL1       -0.2667
     15 C          63.0172   87.6818   16.3862 C.3     1  UNL1        0.1363
     16 C          64.9983   91.9597   12.6748 C.ar    1  UNL1        0.1024
     17 C          64.6699   91.8952   11.2127 C.ar    1  UNL1        0.0414
     18 C          65.1651   92.9647   10.2848 C.ar    1  UNL1        0.1023
     19 N          65.9889   94.0987   10.8191 N.ar    1  UNL1       -0.2224
     20 C          66.3174   94.1632   12.2813 C.ar    1  UNL1        0.1989
     21 N          65.8221   93.0937   13.2092 N.ar    1  UNL1       -0.2224
     22 C          63.2221   82.7827   12.0609 C.ar    1  UNL1        0.0480
     23 C          63.5883   82.4385   10.6476 C.ar    1  UNL1        0.0154
     24 C          63.4312   81.0310   10.1537 C.ar    1  UNL1        0.0127
     25 C          62.9078   79.9675   11.0731 C.ar    1  UNL1        0.0578
     26 CL         62.7507   78.5599   10.5791 Cl      1  UNL1       -0.0822
     27 C          62.5417   80.3116   12.4864 C.ar    1  UNL1        0.0127
     28 C          62.6988   81.7193   12.9803 C.ar    1  UNL1        0.0154
@<TRIPOS>BOND
     1     2     1    1
     2     2     3    1
     3     3     4    1
     4     4    22    1
     5    22    23   ar
     6    23    24   ar
     7    24    25   ar
     8    25    26    1
     9    25    27   ar
    10    27    28   ar
    11     4     5    1
    12     5     6    1
    13     6     7    1
    14     7     8    1
    15     8     9   ar
    16     9    10   ar
    17    10    16    1
    18    16    17   ar
    19    17    18   ar
    20    18    19   ar
    21    19    20   ar
    22    20    21   ar
    23    10    11   ar
    24    11    12   ar
    25    12    13    2
    26    12    14   ar
    27    14    15    1
    28     7     2    1
    29    14     8   ar
    30    28    22   ar
    31    21    16   ar
@<TRIPOS>MOLECULE
*****
 28 31 0 0 0
SMALL
GASTEIGER

@<TRIPOS>ATOM
      1 C          64.5945   87.2163   14.8089 C.3     1  UNL1        0.0233
      2 C          63.8219   86.4780   13.7563 C.3     1  UNL1        0.0953
      3 C          63.5935   85.0016   13.8908 C.3     1  UNL1        0.1106
      4 N          62.8209   84.2633   12.8382 N.pl3   1  UNL1       -0.3041
      5 C          62.2768   85.0013   11.6511 C.3     1  UNL1        0.1123
      6 C          62.5052   86.4776   11.5166 C.3     1  UNL1        0.1149
      7 N          63.2778   87.2160   12.5692 N.pl3   1  UNL1       -0.2777
      8 C          63.5062   88.6924   12.4347 C.ar    1  UNL1        0.2035
      9 N          64.2798   89.4305   13.4868 N.ar    1  UNL1       -0.2133
     10 C          64.5082   90.9069   13.3523 C.ar    1  UNL1        0.1065
     11 C          63.9631   91.6452   12.1657 C.ar    1  UNL1        0.0815
     12 C          63.1896   90.9071   11.1137 C.ar    1  UNL1        0.2646
     13 O          62.6445   91.6453    9.9272 O.2     1  UNL1       -0.2668
     14 N          62.9611   89.4306   11.2482 N.ar    1  UNL1       -0.2667
     15 C          62.1876   88.6925   10.1962 C.3     1  UNL1        0.1363
     16 C          65.2818   91.6450   14.4043 C.ar    1  UNL1        0.1024
     17 C          66.6943   92.0720   14.1355 C.ar    1  UNL1        0.0414
     18 C          67.4679   92.8102   15.1875 C.ar    1  UNL1        0.1023
     19 N          66.8289   93.1213   16.5084 N.ar    1  UNL1       -0.2224
     20 C          65.4162   92.6943   16.7773 C.ar    1  UNL1        0.1989
     21 N          64.6427   91.9562   15.7253 N.ar    1  UNL1       -0.2224
     22 C          62.5925   82.7868   12.9727 C.ar    1  UNL1        0.0480
     23 C          63.0579   81.8545   11.8937 C.ar    1  UNL1        0.0154
     24 C          62.8295   80.3782   12.0282 C.ar    1  UNL1        0.0127
     25 C          62.1356   79.8340   13.2417 C.ar    1  UNL1        0.0578
     26 CL         61.9072   78.3576   13.3762 Cl      1  UNL1       -0.0822
     27 C          61.6702   80.7663   14.3207 C.ar    1  UNL1        0.0127
     28 C          61.8986   82.2427   14.1862 C.ar    1  UNL1        0.0154
@<TRIPOS>BOND
     1     2     1    1
     2     2     3    1
     3     3     4    1
     4     4    22    1
     5    22    23   ar
     6    23    24   ar
     7    24    25   ar
     8    25    26    1
     9    25    27   ar
    10    27    28   ar
    11     4     5    1
    12     5     6    1
    13     6     7    1
    14     7     8    1
    15     8     9   ar
    16     9    10   ar
    17    10    16    1
    18    16    17   ar
    19    17    18   ar
    20    18    19   ar
    21    19    20   ar
    22    20    21   ar
    23    10    11   ar
    24    11    12   ar
    25    12    13    2
    26    12    14   ar
    27    14    15    1
    28     7     2    1
    29    14     8   ar
    30    28    22   ar
    31    21    16   ar
@<TRIPOS>MOLECULE
*****
 28 31 0 0 0
SMALL
GASTEIGER

@<TRIPOS>ATOM
      1 C          62.4891   86.6104    8.9972 C.3     1  UNL1        0.0233
      2 C          62.5108   85.7872   10.2509 C.3     1  UNL1        0.0953
      3 C          62.5959   84.2921   10.1651 C.3     1  UNL1        0.1106
      4 N          62.6176   83.4689   11.4188 N.pl3   1  UNL1       -0.3041
      5 C          62.5541   84.1408   12.7584 C.3     1  UNL1        0.1123
      6 C          62.4690   85.6359   12.8442 C.3     1  UNL1        0.1149
      7 N          62.4473   86.4591   11.5905 N.pl3   1  UNL1       -0.2777
      8 C          62.3621   87.9542   11.6764 C.ar    1  UNL1        0.2035
      9 N          63.5031   88.7385   12.2535 N.ar    1  UNL1       -0.2133
     10 C          63.4179   90.2336   12.3394 C.ar    1  UNL1        0.1065
     11 C          62.1918   90.9445   11.8482 C.ar    1  UNL1        0.0815
     12 C          61.0508   90.1602   11.2711 C.ar    1  UNL1        0.2646
     13 O          59.8247   90.8710   10.7798 O.2     1  UNL1       -0.2668
     14 N          61.1360   88.6650   11.1852 N.ar    1  UNL1       -0.2667
     15 C          59.9950   87.8808   10.6081 C.3     1  UNL1        0.1363
     16 C          64.5589   91.0179   12.9165 C.ar    1  UNL1        0.1024
     17 C          65.1336   90.6362   14.2484 C.ar    1  UNL1        0.0414
     18 C          66.2746   91.4205   14.8256 C.ar    1  UNL1        0.1023
     19 N          66.8409   92.5864   14.0708 N.ar    1  UNL1       -0.2224
     20 C          66.2662   92.9682   12.7388 C.ar    1  UNL1        0.1989
     21 N          65.1252   92.1839   12.1617 N.ar    1  UNL1       -0.2224
     22 C          62.7028   81.9737   11.3330 C.ar    1  UNL1        0.0480
     23 C          63.0186   81.3145   10.0231 C.ar    1  UNL1        0.0154
     24 C          63.1038   79.8195    9.9372 C.ar    1  UNL1        0.0127
     25 C          62.8732   78.9835   11.1611 C.ar    1  UNL1        0.0578
     26 CL         62.9584   77.4884   11.0752 Cl      1  UNL1       -0.0822
     27 C          62.5574   79.6427   12.4710 C.ar    1  UNL1        0.0127
     28 C          62.4722   81.1378   12.5569 C.ar    1  UNL1        0.0154
@<TRIPOS>BOND
     1     2     1    1
     2     2     3    1
     3     3     4    1
     4     4    22    1
     5    22    23   ar
     6    23    24   ar
     7    24    25   ar
     8    25    26    1
     9    25    27   ar
    10    27    28   ar
    11     4     5    1
    12     5     6    1
    13     6     7    1
    14     7     8    1
    15     8     9   ar
    16     9    10   ar
    17    10    16    1
    18    16    17   ar
    19    17    18   ar
    20    18    19   ar
    21    19    20   ar
    22    20    21   ar
    23    10    11   ar
    24    11    12   ar
    25    12    13    2
    26    12    14   ar
    27    14    15    1
    28     7     2    1
    29    14     8   ar
    30    28    22   ar
    31    21    16   ar
@<TRIPOS>MOLECULE
*****
 28 31 0 0 0
SMALL
GASTEIGER

@<TRIPOS>ATOM
      1 C          59.7888   89.0388   11.8569 C.3     1  UNL1        0.0233
      2 C          61.1576   89.5648   11.5411 C.3     1  UNL1        0.0953
      3 C          62.0179   90.1222   12.6361 C.3     1  UNL1        0.1106
      4 N          63.3868   90.6481   12.3203 N.pl3   1  UNL1       -0.3041
      5 C          63.8952   90.6166   10.9095 C.3     1  UNL1        0.1123
      6 C          63.0349   90.0592    9.8145 C.3     1  UNL1        0.1149
      7 N          61.6660   89.5333   10.1303 N.pl3   1  UNL1       -0.2777
      8 C          60.8057   88.9758    9.0352 C.ar    1  UNL1        0.2035
      9 N          60.1087   89.9026    8.0837 N.ar    1  UNL1       -0.2133
     10 C          59.2484   89.3453    6.9887 C.ar    1  UNL1        0.1065
     11 C          59.0850   87.8611    6.8451 C.ar    1  UNL1        0.0815
     12 C          59.7819   86.9343    7.7966 C.ar    1  UNL1        0.2646
     13 O          59.6185   85.4502    7.6531 O.2     1  UNL1       -0.2668
     14 N          60.6423   87.4917    8.8917 N.ar    1  UNL1       -0.2667
     15 C          61.3392   86.5650    9.8432 C.3     1  UNL1        0.1363
     16 C          58.5515   90.2720    6.0372 C.ar    1  UNL1        0.1024
     17 C          59.3519   91.2008    5.1732 C.ar    1  UNL1        0.0414
     18 C          58.6550   92.1276    4.2217 C.ar    1  UNL1        0.1023
     19 N          57.1576   92.1256    4.1341 N.ar    1  UNL1       -0.2224
     20 C          56.3570   91.1967    4.9981 C.ar    1  UNL1        0.1989
     21 N          57.0540   90.2700    5.9497 N.ar    1  UNL1       -0.2224
     22 C          64.2471   91.2055   13.4153 C.ar    1  UNL1        0.0480
     23 C          65.4565   92.0251   13.0753 C.ar    1  UNL1        0.0154
     24 C          66.3169   92.5825   14.1703 C.ar    1  UNL1        0.0127
     25 C          65.9679   92.3203   15.6054 C.ar    1  UNL1        0.0578
     26 CL         66.8282   92.8777   16.7004 Cl      1  UNL1       -0.0822
     27 C          64.7585   91.5008   15.9455 C.ar    1  UNL1        0.0127
     28 C          63.8981   90.9433   14.8504 C.ar    1  UNL1        0.0154
@<TRIPOS>BOND
     1     2     1    1
     2     2     3    1
     3     3     4    1
     4     4    22    1
     5    22    23   ar
     6    23    24   ar
     7    24    25   ar
     8    25    26    1
     9    25    27   ar
    10    27    28   ar
    11     4     5    1
    12     5     6    1
    13     6     7    1
    14     7     8    1
    15     8     9   ar
    16     9    10   ar
    17    10    16    1
    18    16    17   ar
    19    17    18   ar
    20    18    19   ar
    21    19    20   ar
    22    20    21   ar
    23    10    11   ar
    24    11    12   ar
    25    12    13    2
    26    12    14   ar
    27    14    15    1
    28     7     2    1
    29    14     8   ar
    30    28    22   ar
    31    21    16   ar
@<TRIPOS>MOLECULE
*****
 28 31 0 0 0
SMALL
GASTEIGER

@<TRIPOS>ATOM
      1 C          64.1515   87.5613   14.7688 C.3     1  UNL1        0.0233
      2 C          64.4397   88.8566   14.0693 C.3     1  UNL1        0.0953
      3 C          65.3765   89.8510   14.6884 C.3     1  UNL1        0.1106
      4 N          65.6647   91.1463   13.9889 N.pl3   1  UNL1       -0.3041
      5 C          65.0159   91.4471   12.6704 C.3     1  UNL1        0.1123
      6 C          64.0791   90.4526   12.0513 C.3     1  UNL1        0.1149
      7 N          63.7909   89.1574   12.7508 N.pl3   1  UNL1       -0.2777
      8 C          62.8540   88.1629   12.1316 C.ar    1  UNL1        0.2035
      9 N          63.1891   86.7010   12.1556 N.ar    1  UNL1       -0.2133
     10 C          62.2522   85.7066   11.5365 C.ar    1  UNL1        0.1065
     11 C          60.9802   86.1740   10.8934 C.ar    1  UNL1        0.0815
     12 C          60.6451   87.6359   10.8694 C.ar    1  UNL1        0.2646
     13 O          59.3732   88.1033   10.2263 O.2     1  UNL1       -0.2668
     14 N          61.5821   88.6304   11.4885 N.ar    1  UNL1       -0.2667
     15 C          61.2470   90.0923   11.4645 C.3     1  UNL1        0.1363
     16 C          62.5873   84.2447   11.5605 C.ar    1  UNL1        0.1024
     17 C          63.3263   83.6256   10.4114 C.ar    1  UNL1        0.0414
     18 C          63.6614   82.1637   10.4354 C.ar    1  UNL1        0.1023
     19 N          63.2575   81.3209   11.6085 N.ar    1  UNL1       -0.2224
     20 C          62.5185   81.9399   12.7578 C.ar    1  UNL1        0.1989
     21 N          62.1834   83.4018   12.7338 N.ar    1  UNL1       -0.2224
     22 C          66.6016   92.1407   14.6081 C.ar    1  UNL1        0.0480
     23 C          66.5315   93.5854   14.2107 C.ar    1  UNL1        0.0154
     24 C          67.4684   94.5799   14.8298 C.ar    1  UNL1        0.0127
     25 C          68.4754   94.1297   15.8463 C.ar    1  UNL1        0.0578
     26 CL         69.4123   95.1241   16.4654 Cl      1  UNL1       -0.0822
     27 C          68.5455   92.6850   16.2437 C.ar    1  UNL1        0.0127
     28 C          67.6085   91.6905   15.6246 C.ar    1  UNL1        0.0154
@<TRIPOS>BOND
     1     2     1    1
     2     2     3    1
     3     3     4    1
     4     4    22    1
     5    22    23   ar
     6    23    24   ar
     7    24    25   ar
     8    25    26    1
     9    25    27   ar
    10    27    28   ar
    11     4     5    1
    12     5     6    1
    13     6     7    1
    14     7     8    1
    15     8     9   ar
    16     9    10   ar
    17    10    16    1
    18    16    17   ar
    19    17    18   ar
    20    18    19   ar
    21    19    20   ar
    22    20    21   ar
    23    10    11   ar
    24    11    12   ar
    25    12    13    2
    26    12    14   ar
    27    14    15    1
    28     7     2    1
    29    14     8   ar
    30    28    22   ar
    31    21    16   ar
