@<TRIPOS>MOLECULE
*****
 38 43 0 0 0
SMALL
GASTEIGER

@<TRIPOS>ATOM
      1 C          65.0318   91.6416   12.6161 C.ar    1  UNL1        0.0399
      2 C          63.8361   90.9020   12.0935 C.ar    1  UNL1        0.0416
      3 C          63.0211   90.0459   13.0171 C.ar    1  UNL1        0.1578
      4 C          63.4021   89.9294   14.4633 C.ar    1  UNL1        0.1356
      5 N          64.5979   90.6691   14.9858 N.ar    1  UNL1       -0.2405
      6 C          65.4128   91.5251   14.0622 C.ar    1  UNL1        0.0861
      7 C          64.6371   96.8557    9.8868 C.3     1  UNL1        0.0557
      8 C          65.8681   96.0209    9.6926 C.ar    1  UNL1        0.1015
      9 N          67.0540   96.3818    8.8480 N.ar    1  UNL1       -0.1493
     10 N          68.0481   95.2625    8.9423 N.ar    1  UNL1       -0.1291
     11 C          67.4766   94.2098    9.8453 C.ar    1  UNL1        0.1811
     12 N          68.0090   92.8851   10.3051 N.ar    1  UNL1       -0.3335
     13 C          67.1941   92.0290   11.2287 C.ar    1  UNL1        0.0929
     14 C          65.8468   92.4977   11.6924 C.ar    1  UNL1        0.0999
     15 N          65.3144   93.8225   11.2326 N.ar    1  UNL1       -0.2395
     16 C          66.1293   94.6785   10.3090 C.ar    1  UNL1        0.1320
     17 H          68.8933   92.5775   10.0008 H       1  UNL1        0.1675
     18 C          66.6086   92.2648   14.5847 C.ar    1  UNL1        0.0584
     19 C          67.8847   91.6453   15.0724 C.ar    1  UNL1        0.0453
     20 C          68.8030   92.7514   15.5004 C.ar    1  UNL1        0.1798
     21 O          68.0945   94.0546   15.2771 O.2     1  UNL1       -0.4473
     22 C          66.7383   93.7538   14.7112 C.ar    1  UNL1        0.1812
     23 O          61.8254   89.3063   12.4946 O.3     1  UNL1       -0.4724
     24 C          61.1475   89.7684   11.2389 C.3     1  UNL1        0.2211
     25 C          60.6822   88.7656   10.2251 C.3     1  UNL1        0.0995
     26 N          60.2659   89.2195    8.8573 N.3     1  UNL1       -0.3190
     27 H          59.9812   88.4120    8.3031 H       1  UNL1        0.1189
     28 H          61.0496   89.6860    8.4007 H       1  UNL1        0.1189
     29 C          60.6333   87.3087   10.5790 C.3     1  UNL1        0.0472
     30 C          61.5968   86.3500    9.9444 C.2     1  UNL1       -0.0005
     31 C          61.9510   86.2904    8.4881 C.2     1  UNL1        0.0942
     32 N          62.9483   85.1861    8.2985 N.2     1  UNL1       -0.2482
     33 C          63.2105   84.5632    9.6377 C.2     1  UNL1        0.0631
     34 C          64.1018   83.4341   10.0622 C.3     1  UNL1        0.0717
     35 C          64.1580   83.0241   11.5041 C.2     1  UNL1       -0.0198
     36 C          63.3227   83.7434   12.5213 C.2     1  UNL1       -0.0042
     37 C          62.4313   84.8727   12.0967 C.2     1  UNL1        0.0006
     38 C          62.3752   85.2826   10.6549 C.2     1  UNL1        0.0114
@<TRIPOS>BOND
     1     7     8    1
     2     8     9   ar
     3     9    10   ar
     4    10    11   ar
     5    11    12   ar
     6    12    13   ar
     7    13    14   ar
     8    14     1    1
     9     1     2   ar
    10     2     3   ar
    11     3    23    1
    12    23    24    1
    13    24    25    1
    14    25    26    1
    15    25    29    1
    16    29    30    1
    17    30    31    2
    18    31    32    1
    19    32    33    2
    20    33    34    1
    21    34    35    1
    22    35    36    2
    23    36    37    1
    24    37    38    2
    25     3     4   ar
    26     4     5   ar
    27     5     6   ar
    28     6    18    1
    29    18    19   ar
    30    19    20   ar
    31    20    21   ar
    32    21    22   ar
    33    14    15   ar
    34    15    16   ar
    35    16     8   ar
    36    16    11    1
    37     6     1   ar
    38    22    18   ar
    39    38    30    1
    40    38    33    1
    41    12    17    1
    42    26    27    1
    43    26    28    1
@<TRIPOS>MOLECULE
*****
 38 43 0 0 0
SMALL
GASTEIGER

@<TRIPOS>ATOM
      1 C          65.0979   91.5714   12.7181 C.ar    1  UNL1        0.0399
      2 C          63.9114   90.8029   12.2166 C.ar    1  UNL1        0.0416
      3 C          63.3250   89.7012   13.0488 C.ar    1  UNL1        0.1578
      4 C          63.9252   89.3680   14.3825 C.ar    1  UNL1        0.1356
      5 N          65.1117   90.1366   14.8840 N.ar    1  UNL1       -0.2405
      6 C          65.6980   91.2382   14.0518 C.ar    1  UNL1        0.0861
      7 C          68.8329   92.2177    8.1989 C.3     1  UNL1        0.0557
      8 C          68.1992   93.4358    8.8028 C.ar    1  UNL1        0.1015
      9 N          68.4207   94.8535    8.3657 N.ar    1  UNL1       -0.1493
     10 N          67.5911   95.7439    9.2426 N.ar    1  UNL1       -0.1291
     11 C          66.8569   94.8765   10.2217 C.ar    1  UNL1        0.1811
     12 N          65.8947   95.2013   11.3256 N.ar    1  UNL1       -0.3335
     13 C          65.3084   94.0996   12.1577 C.ar    1  UNL1        0.0929
     14 C          65.6843   92.6731   11.8859 C.ar    1  UNL1        0.0999
     15 N          66.6464   92.3483   10.7820 N.ar    1  UNL1       -0.2395
     16 C          67.2327   93.4500    9.9499 C.ar    1  UNL1        0.1320
     17 H          65.6481   96.1375   11.5040 H       1  UNL1        0.1675
     18 C          66.8846   92.0068   14.5534 C.ar    1  UNL1        0.0584
     19 C          66.8996   92.9363   15.7306 C.ar    1  UNL1        0.0453
     20 C          68.2887   93.4847   15.8705 C.ar    1  UNL1        0.1798
     21 O          69.1323   92.8942   14.7797 O.2     1  UNL1       -0.4473
     22 C          68.2645   91.9808   13.9657 C.ar    1  UNL1        0.1812
     23 O          62.1385   88.9327   12.5472 O.3     1  UNL1       -0.4724
     24 C          61.2385   89.5355   11.5096 C.3     1  UNL1        0.2211
     25 C          60.7964   88.7167   10.3331 C.3     1  UNL1        0.0995
     26 N          60.5663   89.3752    9.0051 N.3     1  UNL1       -0.3190
     27 H          60.2721   88.6746    8.3247 H       1  UNL1        0.1189
     28 H          61.4311   89.8141    8.6889 H       1  UNL1        0.1189
     29 C          60.5844   87.2395   10.4846 C.3     1  UNL1        0.0472
     30 C          61.5609   86.2757    9.8783 C.2     1  UNL1       -0.0005
     31 C          61.8746   86.1400    8.4178 C.2     1  UNL1        0.0942
     32 N          62.9027   85.0587    8.2630 N.2     1  UNL1       -0.2482
     33 C          63.2244   84.5261    9.6279 C.2     1  UNL1        0.0631
     34 C          64.1652   83.4535   10.0906 C.3     1  UNL1        0.0717
     35 C          64.2768   83.1329   11.5518 C.2     1  UNL1       -0.0198
     36 C          63.4476   83.8850   12.5501 C.2     1  UNL1       -0.0042
     37 C          62.5067   84.9577   12.0873 C.2     1  UNL1        0.0006
     38 C          62.3951   85.2782   10.6262 C.2     1  UNL1        0.0114
@<TRIPOS>BOND
     1     7     8    1
     2     8     9   ar
     3     9    10   ar
     4    10    11   ar
     5    11    12   ar
     6    12    13   ar
     7    13    14   ar
     8    14     1    1
     9     1     2   ar
    10     2     3   ar
    11     3    23    1
    12    23    24    1
    13    24    25    1
    14    25    26    1
    15    25    29    1
    16    29    30    1
    17    30    31    2
    18    31    32    1
    19    32    33    2
    20    33    34    1
    21    34    35    1
    22    35    36    2
    23    36    37    1
    24    37    38    2
    25     3     4   ar
    26     4     5   ar
    27     5     6   ar
    28     6    18    1
    29    18    19   ar
    30    19    20   ar
    31    20    21   ar
    32    21    22   ar
    33    14    15   ar
    34    15    16   ar
    35    16     8   ar
    36    16    11    1
    37     6     1   ar
    38    22    18   ar
    39    38    30    1
    40    38    33    1
    41    12    17    1
    42    26    27    1
    43    26    28    1
@<TRIPOS>MOLECULE
*****
 38 43 0 0 0
SMALL
GASTEIGER

@<TRIPOS>ATOM
      1 C          65.1086   91.6722   12.7841 C.ar    1  UNL1        0.0399
      2 C          63.8868   90.9333   12.3245 C.ar    1  UNL1        0.0416
      3 C          63.2907   89.8602   13.1866 C.ar    1  UNL1        0.1578
      4 C          63.9164   89.5260   14.5082 C.ar    1  UNL1        0.1356
      5 N          65.1382   90.2649   14.9678 N.ar    1  UNL1       -0.2405
      6 C          65.7343   91.3379   14.1058 C.ar    1  UNL1        0.0861
      7 C          68.8343   92.1588    8.2372 C.3     1  UNL1        0.0557
      8 C          68.2171   93.3993    8.8119 C.ar    1  UNL1        0.1015
      9 N          68.4535   94.8026    8.3379 N.ar    1  UNL1       -0.1493
     10 N          67.6376   95.7248    9.1946 N.ar    1  UNL1       -0.1291
     11 C          66.8970   94.8914   10.1980 C.ar    1  UNL1        0.1811
     12 N          65.9428   95.2557   11.2965 N.ar    1  UNL1       -0.3335
     13 C          65.3467   94.1826   12.1585 C.ar    1  UNL1        0.0929
     14 C          65.7048   92.7453   11.9220 C.ar    1  UNL1        0.0999
     15 N          66.6590   92.3811   10.8235 N.ar    1  UNL1       -0.2395
     16 C          67.2551   93.4541    9.9615 C.ar    1  UNL1        0.1320
     17 H          65.7077   96.1990   11.4518 H       1  UNL1        0.1675
     18 C          66.9562   92.0768   14.5654 C.ar    1  UNL1        0.0584
     19 C          67.0274   93.0300   15.7213 C.ar    1  UNL1        0.0453
     20 C          68.4366   93.5345   15.8200 C.ar    1  UNL1        0.1798
     21 O          69.2363   92.8931   14.7250 O.2     1  UNL1       -0.4473
     22 C          68.3214   91.9922   13.9496 C.ar    1  UNL1        0.1812
     23 O          62.0688   89.1214   12.7270 O.3     1  UNL1       -0.4724
     24 C          61.0055   89.8401   11.9506 C.3     1  UNL1        0.2211
     25 C          60.5714   89.3183   10.6131 C.3     1  UNL1        0.0995
     26 N          60.8715   90.1011    9.3692 N.3     1  UNL1       -0.3190
     27 H          60.5070   89.6025    8.5574 H       1  UNL1        0.1189
     28 H          61.8807   90.2142    9.2738 H       1  UNL1        0.1189
     29 C          59.8371   88.0136   10.5193 C.3     1  UNL1        0.0472
     30 C          59.8427   87.2406    9.2338 C.2     1  UNL1       -0.0005
     31 C          58.7230   87.1780    8.2377 C.2     1  UNL1        0.0942
     32 N          59.1573   86.2931    7.1071 N.2     1  UNL1       -0.2482
     33 C          60.5455   85.8088    7.4044 C.2     1  UNL1        0.0631
     34 C          61.4785   84.9104    6.6481 C.3     1  UNL1        0.0717
     35 C          62.8353   84.5974    7.2061 C.2     1  UNL1       -0.0198
     36 C          63.2589   85.1829    8.5205 C.2     1  UNL1       -0.0042
     37 C          62.3258   86.0815    9.2768 C.2     1  UNL1        0.0006
     38 C          60.9691   86.3944    8.7188 C.2     1  UNL1        0.0114
@<TRIPOS>BOND
     1     7     8    1
     2     8     9   ar
     3     9    10   ar
     4    10    11   ar
     5    11    12   ar
     6    12    13   ar
     7    13    14   ar
     8    14     1    1
     9     1     2   ar
    10     2     3   ar
    11     3    23    1
    12    23    24    1
    13    24    25    1
    14    25    26    1
    15    25    29    1
    16    29    30    1
    17    30    31    2
    18    31    32    1
    19    32    33    2
    20    33    34    1
    21    34    35    1
    22    35    36    2
    23    36    37    1
    24    37    38    2
    25     3     4   ar
    26     4     5   ar
    27     5     6   ar
    28     6    18    1
    29    18    19   ar
    30    19    20   ar
    31    20    21   ar
    32    21    22   ar
    33    14    15   ar
    34    15    16   ar
    35    16     8   ar
    36    16    11    1
    37     6     1   ar
    38    22    18   ar
    39    38    30    1
    40    38    33    1
    41    12    17    1
    42    26    27    1
    43    26    28    1
@<TRIPOS>MOLECULE
*****
 38 43 0 0 0
SMALL
GASTEIGER

@<TRIPOS>ATOM
      1 C          64.0952   90.7922   13.2660 C.ar    1  UNL1        0.0399
      2 C          63.2446   90.6100   12.0440 C.ar    1  UNL1        0.0416
      3 C          63.5364   91.3998   10.8025 C.ar    1  UNL1        0.1578
      4 C          64.6788   92.3717   10.7831 C.ar    1  UNL1        0.1356
      5 N          65.5294   92.5538   12.0052 N.ar    1  UNL1       -0.2405
      6 C          65.2376   91.7641   13.2466 C.ar    1  UNL1        0.0861
      7 C          64.1297   85.1759   15.0683 C.3     1  UNL1        0.0557
      8 C          63.7293   86.2509   16.0348 C.ar    1  UNL1        0.1015
      9 N          63.3215   86.0446   17.4635 N.ar    1  UNL1       -0.1493
     10 N          63.0066   87.3871   18.0540 N.ar    1  UNL1       -0.1291
     11 C          63.2198   88.4230   16.9903 C.ar    1  UNL1        0.1811
     12 N          63.0650   89.9149   16.9968 N.ar    1  UNL1       -0.3335
     13 C          63.3567   90.7046   15.7554 C.ar    1  UNL1        0.0929
     14 C          63.8034   90.0024   14.5075 C.ar    1  UNL1        0.0999
     15 N          63.9583   88.5104   14.5009 N.ar    1  UNL1       -0.2395
     16 C          63.6665   87.7207   15.7423 C.ar    1  UNL1        0.1320
     17 H          62.7718   90.3758   17.8159 H       1  UNL1        0.1675
     18 C          66.0882   91.9462   14.4687 C.ar    1  UNL1        0.0584
     19 C          67.4867   91.4365   14.6534 C.ar    1  UNL1        0.0453
     20 C          67.9524   91.8452   16.0194 C.ar    1  UNL1        0.1798
     21 O          66.8416   92.6076   16.6790 O.2     1  UNL1       -0.4473
     22 C          65.6894   92.6700   15.7205 C.ar    1  UNL1        0.1812
     23 O          62.6858   91.2177    9.5805 O.3     1  UNL1       -0.4724
     24 C          61.8766   89.9663    9.4097 C.3     1  UNL1        0.2211
     25 C          60.6335   89.7601   10.2234 C.3     1  UNL1        0.0995
     26 N          59.9763   90.9276   10.8979 N.3     1  UNL1       -0.3190
     27 H          59.1503   90.6074   11.4035 H       1  UNL1        0.1189
     28 H          59.7003   91.6145   10.1962 H       1  UNL1        0.1189
     29 C          60.0476   88.3863   10.3626 C.3     1  UNL1        0.0472
     30 C          59.9512   87.4872    9.1657 C.2     1  UNL1       -0.0005
     31 C          58.7658   87.3537    8.2564 C.2     1  UNL1        0.0942
     32 N          59.1054   86.3477    7.1968 N.2     1  UNL1       -0.2482
     33 C          60.5007   85.8595    7.4513 C.2     1  UNL1        0.0631
     34 C          61.3628   84.8647    6.7322 C.3     1  UNL1        0.0717
     35 C          62.7477   84.5741    7.2299 C.2     1  UNL1       -0.0198
     36 C          63.2704   85.2783    8.4468 C.2     1  UNL1       -0.0042
     37 C          62.4083   86.2731    9.1659 C.2     1  UNL1        0.0006
     38 C          61.0235   86.5637    8.6681 C.2     1  UNL1        0.0114
@<TRIPOS>BOND
     1     7     8    1
     2     8     9   ar
     3     9    10   ar
     4    10    11   ar
     5    11    12   ar
     6    12    13   ar
     7    13    14   ar
     8    14     1    1
     9     1     2   ar
    10     2     3   ar
    11     3    23    1
    12    23    24    1
    13    24    25    1
    14    25    26    1
    15    25    29    1
    16    29    30    1
    17    30    31    2
    18    31    32    1
    19    32    33    2
    20    33    34    1
    21    34    35    1
    22    35    36    2
    23    36    37    1
    24    37    38    2
    25     3     4   ar
    26     4     5   ar
    27     5     6   ar
    28     6    18    1
    29    18    19   ar
    30    19    20   ar
    31    20    21   ar
    32    21    22   ar
    33    14    15   ar
    34    15    16   ar
    35    16     8   ar
    36    16    11    1
    37     6     1   ar
    38    22    18   ar
    39    38    30    1
    40    38    33    1
    41    12    17    1
    42    26    27    1
    43    26    28    1
@<TRIPOS>MOLECULE
*****
 38 43 0 0 0
SMALL
GASTEIGER

@<TRIPOS>ATOM
      1 C          65.0959   91.5212   12.5714 C.ar    1  UNL1        0.0399
      2 C          63.9189   90.7451   12.0593 C.ar    1  UNL1        0.0416
      3 C          63.1535   89.8459   12.9843 C.ar    1  UNL1        0.1578
      4 C          63.5651   89.7228   14.4214 C.ar    1  UNL1        0.1356
      5 N          64.7422   90.4989   14.9335 N.ar    1  UNL1       -0.2405
      6 C          65.5076   91.3981   14.0085 C.ar    1  UNL1        0.0861
      7 C          64.5614   96.8557   10.1119 C.3     1  UNL1        0.0557
      8 C          65.7795   96.0326    9.8138 C.ar    1  UNL1        0.1015
      9 N          66.9190   96.4341    8.9248 N.ar    1  UNL1       -0.1493
     10 N          67.9156   95.3130    8.9141 N.ar    1  UNL1       -0.1291
     11 C          67.3921   94.2188    9.7964 C.ar    1  UNL1        0.1811
     12 N          67.9469   92.8749   10.1653 N.ar    1  UNL1       -0.3335
     13 C          67.1815   91.9758   11.0903 C.ar    1  UNL1        0.0929
     14 C          65.8613   92.4205   11.6463 C.ar    1  UNL1        0.0999
     15 N          65.3064   93.7643   11.2775 N.ar    1  UNL1       -0.2395
     16 C          66.0718   94.6635   10.3525 C.ar    1  UNL1        0.1320
     17 H          68.8134   92.5830    9.8003 H       1  UNL1        0.1675
     18 C          66.6846   92.1742   14.5206 C.ar    1  UNL1        0.0584
     19 C          68.1284   91.8157   14.3282 C.ar    1  UNL1        0.0453
     20 C          68.9606   92.8651   15.0037 C.ar    1  UNL1        0.1798
     21 O          68.0311   93.8721   15.6137 O.2     1  UNL1       -0.4473
     22 C          66.6246   93.4452   15.3151 C.ar    1  UNL1        0.1812
     23 O          61.9765   89.0698   12.4722 O.3     1  UNL1       -0.4724
     24 C          60.6029   89.6706   12.5217 C.3     1  UNL1        0.2211
     25 C          60.0546   90.3883   11.3241 C.3     1  UNL1        0.0995
     26 N          58.8257   91.2382   11.4567 N.3     1  UNL1       -0.3190
     27 H          58.5961   91.6476   10.5511 H       1  UNL1        0.1189
     28 H          58.9983   91.9826   12.1324 H       1  UNL1        0.1189
     29 C          60.7351   90.2562    9.9939 C.3     1  UNL1        0.0472
     30 C          60.3598   89.1378    9.0673 C.2     1  UNL1       -0.0005
     31 C          59.1802   89.1186    8.1409 C.2     1  UNL1        0.0942
     32 N          59.1896   87.8113    7.4055 N.2     1  UNL1       -0.2482
     33 C          60.3751   87.0225    7.8774 C.2     1  UNL1        0.0631
     34 C          60.8894   85.6637    7.5046 C.3     1  UNL1        0.0717
     35 C          62.1270   85.1247    8.1588 C.2     1  UNL1       -0.0198
     36 C          62.8501   85.9445    9.1858 C.2     1  UNL1       -0.0042
     37 C          62.3358   87.3034    9.5586 C.2     1  UNL1        0.0006
     38 C          61.0983   87.8424    8.9044 C.2     1  UNL1        0.0114
@<TRIPOS>BOND
     1     7     8    1
     2     8     9   ar
     3     9    10   ar
     4    10    11   ar
     5    11    12   ar
     6    12    13   ar
     7    13    14   ar
     8    14     1    1
     9     1     2   ar
    10     2     3   ar
    11     3    23    1
    12    23    24    1
    13    24    25    1
    14    25    26    1
    15    25    29    1
    16    29    30    1
    17    30    31    2
    18    31    32    1
    19    32    33    2
    20    33    34    1
    21    34    35    1
    22    35    36    2
    23    36    37    1
    24    37    38    2
    25     3     4   ar
    26     4     5   ar
    27     5     6   ar
    28     6    18    1
    29    18    19   ar
    30    19    20   ar
    31    20    21   ar
    32    21    22   ar
    33    14    15   ar
    34    15    16   ar
    35    16     8   ar
    36    16    11    1
    37     6     1   ar
    38    22    18   ar
    39    38    30    1
    40    38    33    1
    41    12    17    1
    42    26    27    1
    43    26    28    1
@<TRIPOS>MOLECULE
*****
 38 43 0 0 0
SMALL
GASTEIGER

@<TRIPOS>ATOM
      1 C          63.8285   90.4161   13.2541 C.ar    1  UNL1        0.0399
      2 C          62.9674   90.0883   12.0705 C.ar    1  UNL1        0.0416
      3 C          63.2016   90.7774   10.7588 C.ar    1  UNL1        0.1578
      4 C          64.2969   91.7943   10.6309 C.ar    1  UNL1        0.1356
      5 N          65.1580   92.1221   11.8147 N.ar    1  UNL1       -0.2405
      6 C          64.9238   91.4329   13.1262 C.ar    1  UNL1        0.0861
      7 C          63.9476   84.9582   15.4878 C.3     1  UNL1        0.0557
      8 C          63.5917   86.1069   16.3844 C.ar    1  UNL1        0.1015
      9 N          63.2501   86.0146   17.8421 N.ar    1  UNL1       -0.1493
     10 N          62.9623   87.4002   18.3393 N.ar    1  UNL1       -0.1291
     11 C          63.1260   88.3488   17.1890 C.ar    1  UNL1        0.1811
     12 N          62.9712   89.8372   17.0856 N.ar    1  UNL1       -0.3335
     13 C          63.2053   90.5262   15.7740 C.ar    1  UNL1        0.0929
     14 C          63.5943   89.7269   14.5658 C.ar    1  UNL1        0.0999
     15 N          63.7492   88.2386   14.6692 N.ar    1  UNL1       -0.2395
     16 C          63.5151   87.5495   15.9808 C.ar    1  UNL1        0.1320
     17 H          62.7158   90.3618   17.8785 H       1  UNL1        0.1675
     18 C          65.7849   91.7607   14.3100 C.ar    1  UNL1        0.0584
     19 C          67.2163   91.3539   14.4986 C.ar    1  UNL1        0.0453
     20 C          67.6818   91.8946   15.8181 C.ar    1  UNL1        0.1798
     21 O          66.5380   92.6355   16.4449 O.2     1  UNL1       -0.4473
     22 C          65.3657   92.5528   15.5129 C.ar    1  UNL1        0.1812
     23 O          62.3405   90.4497    9.5752 O.3     1  UNL1       -0.4724
     24 C          60.9156   90.0274    9.7783 C.3     1  UNL1        0.2211
     25 C          60.4641   88.6699    9.3276 C.3     1  UNL1        0.0995
     26 N          59.6907   88.5222    8.0508 N.3     1  UNL1       -0.3190
     27 H          59.4674   87.5383    7.9004 H       1  UNL1        0.1189
     28 H          60.2517   88.8665    7.2717 H       1  UNL1        0.1189
     29 C          60.7860   87.4599   10.1537 C.3     1  UNL1        0.0472
     30 C          61.6859   86.3935    9.6030 C.2     1  UNL1       -0.0005
     31 C          62.0154   86.1789    8.1555 C.2     1  UNL1        0.0942
     32 N          62.9473   85.0073    8.0610 N.2     1  UNL1       -0.2482
     33 C          63.1938   84.4979    9.4502 C.2     1  UNL1        0.0631
     34 C          64.0273   83.3646    9.9705 C.3     1  UNL1        0.0717
     35 C          64.0813   83.0880   11.4439 C.2     1  UNL1       -0.0198
     36 C          63.3016   83.9447   12.3968 C.2     1  UNL1       -0.0042
     37 C          62.4681   85.0780   11.8765 C.2     1  UNL1        0.0006
     38 C          62.4141   85.3546   10.4032 C.2     1  UNL1        0.0114
@<TRIPOS>BOND
     1     7     8    1
     2     8     9   ar
     3     9    10   ar
     4    10    11   ar
     5    11    12   ar
     6    12    13   ar
     7    13    14   ar
     8    14     1    1
     9     1     2   ar
    10     2     3   ar
    11     3    23    1
    12    23    24    1
    13    24    25    1
    14    25    26    1
    15    25    29    1
    16    29    30    1
    17    30    31    2
    18    31    32    1
    19    32    33    2
    20    33    34    1
    21    34    35    1
    22    35    36    2
    23    36    37    1
    24    37    38    2
    25     3     4   ar
    26     4     5   ar
    27     5     6   ar
    28     6    18    1
    29    18    19   ar
    30    19    20   ar
    31    20    21   ar
    32    21    22   ar
    33    14    15   ar
    34    15    16   ar
    35    16     8   ar
    36    16    11    1
    37     6     1   ar
    38    22    18   ar
    39    38    30    1
    40    38    33    1
    41    12    17    1
    42    26    27    1
    43    26    28    1
@<TRIPOS>MOLECULE
*****
 38 43 0 0 0
SMALL
GASTEIGER

@<TRIPOS>ATOM
      1 C          63.3009   85.1061   13.8341 C.ar    1  UNL1        0.0399
      2 C          63.5580   86.4720   14.3979 C.ar    1  UNL1        0.0416
      3 C          63.5973   86.6749   15.8837 C.ar    1  UNL1        0.1578
      4 C          63.3795   85.5118   16.8055 C.ar    1  UNL1        0.1356
      5 N          63.1224   84.1458   16.2416 N.ar    1  UNL1       -0.2405
      6 C          63.0831   83.9430   14.7559 C.ar    1  UNL1        0.0861
      7 C          60.2902   87.0760    9.1600 C.3     1  UNL1        0.0557
      8 C          61.3763   86.0619    8.9549 C.ar    1  UNL1        0.1015
      9 N          61.7954   85.4723    7.6408 N.ar    1  UNL1       -0.1493
     10 N          62.9120   84.5054    7.9017 N.ar    1  UNL1       -0.1291
     11 C          63.1831   84.4973    9.3770 C.ar    1  UNL1        0.1811
     12 N          64.1715   83.7382   10.2118 N.ar    1  UNL1       -0.3335
     13 C          64.2107   83.9412   11.6974 C.ar    1  UNL1        0.0929
     14 C          63.2616   84.9031   12.3483 C.ar    1  UNL1        0.0999
     15 N          62.2732   85.6622   11.5136 N.ar    1  UNL1       -0.2395
     16 C          62.2339   85.4592   10.0279 C.ar    1  UNL1        0.1320
     17 H          64.7944   83.1068    9.7845 H       1  UNL1        0.1675
     18 C          62.8260   82.5769   14.1920 C.ar    1  UNL1        0.0584
     19 C          61.4937   81.8923   14.1125 C.ar    1  UNL1        0.0453
     20 C          61.7004   80.5480   13.4800 C.ar    1  UNL1        0.1798
     21 O          63.1604   80.4018   13.1684 O.2     1  UNL1       -0.4473
     22 C          63.8560   81.6558   13.6085 C.ar    1  UNL1        0.1812
     23 O          63.8544   88.0409   16.4475 O.3     1  UNL1       -0.4724
     24 C          63.1707   89.2376   15.8555 C.3     1  UNL1        0.2211
     25 C          63.9001   90.5444   15.7544 C.3     1  UNL1        0.0995
     26 N          63.4569   91.7165   16.5789 N.3     1  UNL1       -0.3190
     27 H          64.0604   92.5157   16.3857 H       1  UNL1        0.1189
     28 H          63.5155   91.4775   17.5687 H       1  UNL1        0.1189
     29 C          65.0728   90.6791   14.8288 C.3     1  UNL1        0.0472
     30 C          64.8831   91.2555   13.4569 C.2     1  UNL1       -0.0005
     31 C          65.6026   92.4447   12.8930 C.2     1  UNL1        0.0942
     32 N          65.1048   92.6680   11.4958 N.2     1  UNL1       -0.2482
     33 C          64.0776   91.6168   11.1961 C.2     1  UNL1        0.0631
     34 C          63.2493   91.3417    9.9763 C.3     1  UNL1        0.0717
     35 C          62.2839   90.1936    9.9683 C.2     1  UNL1       -0.0198
     36 C          62.1469   89.3207   11.1804 C.2     1  UNL1       -0.0042
     37 C          62.9752   89.5958   12.4003 C.2     1  UNL1        0.0006
     38 C          63.9406   90.7438   12.4082 C.2     1  UNL1        0.0114
@<TRIPOS>BOND
     1     7     8    1
     2     8     9   ar
     3     9    10   ar
     4    10    11   ar
     5    11    12   ar
     6    12    13   ar
     7    13    14   ar
     8    14     1    1
     9     1     2   ar
    10     2     3   ar
    11     3    23    1
    12    23    24    1
    13    24    25    1
    14    25    26    1
    15    25    29    1
    16    29    30    1
    17    30    31    2
    18    31    32    1
    19    32    33    2
    20    33    34    1
    21    34    35    1
    22    35    36    2
    23    36    37    1
    24    37    38    2
    25     3     4   ar
    26     4     5   ar
    27     5     6   ar
    28     6    18    1
    29    18    19   ar
    30    19    20   ar
    31    20    21   ar
    32    21    22   ar
    33    14    15   ar
    34    15    16   ar
    35    16     8   ar
    36    16    11    1
    37     6     1   ar
    38    22    18   ar
    39    38    30    1
    40    38    33    1
    41    12    17    1
    42    26    27    1
    43    26    28    1
@<TRIPOS>MOLECULE
*****
 38 43 0 0 0
SMALL
GASTEIGER

@<TRIPOS>ATOM
      1 C          62.2721   87.1282   10.6537 C.ar    1  UNL1        0.0399
      2 C          62.6255   88.1818   11.6612 C.ar    1  UNL1        0.0416
      3 C          62.2780   89.6172   11.3987 C.ar    1  UNL1        0.1578
      4 C          61.5769   89.9990   10.1287 C.ar    1  UNL1        0.1356
      5 N          61.2235   88.9453    9.1212 N.ar    1  UNL1       -0.2405
      6 C          61.5710   87.5100    9.3838 C.ar    1  UNL1        0.0861
      7 C          62.0170   83.2333   15.0759 C.3     1  UNL1        0.0557
      8 C          62.5748   82.8004   13.7525 C.ar    1  UNL1        0.1015
      9 N          63.0942   81.4333   13.4193 N.ar    1  UNL1       -0.1493
     10 N          63.5515   81.4467   11.9907 N.ar    1  UNL1       -0.1291
     11 C          63.3147   82.8221   11.4411 C.ar    1  UNL1        0.1811
     12 N          63.5708   83.4208   10.0898 N.ar    1  UNL1       -0.3335
     13 C          63.2232   84.8561    9.8274 C.ar    1  UNL1        0.0929
     14 C          62.6196   85.6928   10.9162 C.ar    1  UNL1        0.0999
     15 N          62.3635   85.0942   12.2675 N.ar    1  UNL1       -0.2395
     16 C          62.7111   83.6588   12.5299 C.ar    1  UNL1        0.1320
     17 H          63.9669   82.8716    9.3752 H       1  UNL1        0.1675
     18 C          61.2176   86.4563    8.3763 C.ar    1  UNL1        0.0584
     19 C          62.1891   85.6255    7.5916 C.ar    1  UNL1        0.0453
     20 C          61.4025   84.7043    6.7070 C.ar    1  UNL1        0.1798
     21 O          59.9447   84.9657    6.9450 O.2     1  UNL1       -0.4473
     22 C          59.8305   86.0486    7.9767 C.ar    1  UNL1        0.1812
     23 O          62.6314   90.6708   12.4061 O.3     1  UNL1       -0.4724
     24 C          63.6871   91.6880   12.0886 C.3     1  UNL1        0.2211
     25 C          64.8994   91.8090   12.9637 C.3     1  UNL1        0.0995
     26 N          65.6857   93.0863   12.9834 N.3     1  UNL1       -0.3190
     27 H          66.4703   92.9926   13.6284 H       1  UNL1        0.1189
     28 H          65.0841   93.8513   13.2888 H       1  UNL1        0.1189
     29 C          65.3253   90.6528   13.8191 C.3     1  UNL1        0.0472
     30 C          64.4841   90.2352   14.9887 C.2     1  UNL1       -0.0005
     31 C          63.8144   91.1549   15.9662 C.2     1  UNL1        0.0942
     32 N          63.0813   90.3127   16.9678 N.2     1  UNL1       -0.2482
     33 C          63.2980   88.8723   16.6093 C.2     1  UNL1        0.0631
     34 C          62.8178   87.5983   17.2386 C.3     1  UNL1        0.0717
     35 C          63.2046   86.2761   16.6448 C.2     1  UNL1       -0.0198
     36 C          64.0716   86.2283   15.4217 C.2     1  UNL1       -0.0042
     37 C          64.5517   87.5024   14.7924 C.2     1  UNL1        0.0006
     38 C          64.1649   88.8244   15.3862 C.2     1  UNL1        0.0114
@<TRIPOS>BOND
     1     7     8    1
     2     8     9   ar
     3     9    10   ar
     4    10    11   ar
     5    11    12   ar
     6    12    13   ar
     7    13    14   ar
     8    14     1    1
     9     1     2   ar
    10     2     3   ar
    11     3    23    1
    12    23    24    1
    13    24    25    1
    14    25    26    1
    15    25    29    1
    16    29    30    1
    17    30    31    2
    18    31    32    1
    19    32    33    2
    20    33    34    1
    21    34    35    1
    22    35    36    2
    23    36    37    1
    24    37    38    2
    25     3     4   ar
    26     4     5   ar
    27     5     6   ar
    28     6    18    1
    29    18    19   ar
    30    19    20   ar
    31    20    21   ar
    32    21    22   ar
    33    14    15   ar
    34    15    16   ar
    35    16     8   ar
    36    16    11    1
    37     6     1   ar
    38    22    18   ar
    39    38    30    1
    40    38    33    1
    41    12    17    1
    42    26    27    1
    43    26    28    1
@<TRIPOS>MOLECULE
*****
 38 43 0 0 0
SMALL
GASTEIGER

@<TRIPOS>ATOM
      1 C          62.7203   87.6525   12.1600 C.ar    1  UNL1        0.0399
      2 C          62.9796   89.0947   12.4807 C.ar    1  UNL1        0.0416
      3 C          63.8734   89.4588   13.6290 C.ar    1  UNL1        0.1578
      4 C          64.5080   88.3806   14.4566 C.ar    1  UNL1        0.1356
      5 N          64.2488   86.9384   14.1358 N.ar    1  UNL1       -0.2405
      6 C          63.3549   86.5743   12.9876 C.ar    1  UNL1        0.0861
      7 C          62.9970   84.6370    7.0983 C.3     1  UNL1        0.0557
      8 C          61.7059   85.2937    7.4877 C.ar    1  UNL1        0.1015
      9 N          60.4297   85.2657    6.6999 N.ar    1  UNL1       -0.1493
     10 N          59.3994   86.0485    7.4586 N.ar    1  UNL1       -0.1291
     11 C          60.0388   86.5603    8.7153 C.ar    1  UNL1        0.1811
     12 N          59.5071   87.3908    9.8456 N.ar    1  UNL1       -0.3335
     13 C          60.4010   87.7549   10.9938 C.ar    1  UNL1        0.0929
     14 C          61.8265   87.2884   11.0117 C.ar    1  UNL1        0.0999
     15 N          62.3581   86.4579    9.8815 N.ar    1  UNL1       -0.2395
     16 C          61.4643   86.0938    8.7333 C.ar    1  UNL1        0.1320
     17 H          58.5715   87.6970    9.8338 H       1  UNL1        0.1675
     18 C          63.0957   85.1321   12.6669 C.ar    1  UNL1        0.0584
     19 C          63.7214   84.3511   11.5496 C.ar    1  UNL1        0.0453
     20 C          63.1776   82.9540   11.5993 C.ar    1  UNL1        0.1798
     21 O          62.2158   82.8716   12.7475 O.2     1  UNL1       -0.4473
     22 C          62.1652   84.2177   13.4072 C.ar    1  UNL1        0.1812
     23 O          64.1326   90.9010   13.9497 O.3     1  UNL1       -0.4724
     24 C          65.0134   91.2652   15.1079 C.3     1  UNL1        0.2211
     25 C          66.2599   92.0676   14.8790 C.3     1  UNL1        0.0995
     26 N          66.7726   92.9798   15.9538 N.3     1  UNL1       -0.3190
     27 H          67.6218   93.4429   15.6301 H       1  UNL1        0.1189
     28 H          66.9802   92.4356   16.7912 H       1  UNL1        0.1189
     29 C          66.9937   91.9579   13.5754 C.3     1  UNL1        0.0472
     30 C          66.8167   93.0131   12.5240 C.2     1  UNL1       -0.0005
     31 C          66.0496   94.2927   12.6794 C.2     1  UNL1        0.0942
     32 N          66.1346   95.0444   11.3842 N.2     1  UNL1       -0.2482
     33 C          66.9543   94.2294   10.4282 C.2     1  UNL1        0.0631
     34 C          67.3713   94.4682    9.0073 C.3     1  UNL1        0.0717
     35 C          68.2100   93.4516    8.2908 C.2     1  UNL1       -0.0198
     36 C          68.6315   92.1962    8.9953 C.2     1  UNL1       -0.0042
     37 C          68.2145   91.9574   10.4162 C.2     1  UNL1        0.0006
     38 C          67.3759   92.9740   11.1327 C.2     1  UNL1        0.0114
@<TRIPOS>BOND
     1     7     8    1
     2     8     9   ar
     3     9    10   ar
     4    10    11   ar
     5    11    12   ar
     6    12    13   ar
     7    13    14   ar
     8    14     1    1
     9     1     2   ar
    10     2     3   ar
    11     3    23    1
    12    23    24    1
    13    24    25    1
    14    25    26    1
    15    25    29    1
    16    29    30    1
    17    30    31    2
    18    31    32    1
    19    32    33    2
    20    33    34    1
    21    34    35    1
    22    35    36    2
    23    36    37    1
    24    37    38    2
    25     3     4   ar
    26     4     5   ar
    27     5     6   ar
    28     6    18    1
    29    18    19   ar
    30    19    20   ar
    31    20    21   ar
    32    21    22   ar
    33    14    15   ar
    34    15    16   ar
    35    16     8   ar
    36    16    11    1
    37     6     1   ar
    38    22    18   ar
    39    38    30    1
    40    38    33    1
    41    12    17    1
    42    26    27    1
    43    26    28    1
