@<TRIPOS>MOLECULE
*****
 35 39 0 0 0
SMALL
GASTEIGER

@<TRIPOS>ATOM
      1 C          62.7368   86.8203   11.8716 C.2     1  UNL1        0.2506
      2 O          63.5384   87.4737   12.9581 O.2     1  UNL1       -0.2699
      3 N          61.7191   87.6155   11.1089 N.am    1  UNL1       -0.2724
      4 C          60.9174   86.9621   10.0223 C.3     1  UNL1        0.1231
      5 C          59.8997   87.7573    9.2596 C.3     1  UNL1        0.1351
      6 C          59.0980   87.1039    8.1730 C.3     1  UNL1        0.0339
      7 O          59.6836   89.2059    9.5833 O.3     1  UNL1       -0.3527
      8 C          60.4851   89.8593   10.6698 C.3     1  UNL1        0.1621
      9 C          61.5029   89.0641   11.4326 C.3     1  UNL1        0.1097
     10 C          63.6014   81.0258   10.5767 C.3     1  UNL1        0.0311
     11 C          63.3852   82.4744   10.9004 C.ar    1  UNL1       -0.0203
     12 C          63.2164   83.4731    9.7940 C.ar    1  UNL1       -0.0040
     13 C          63.0002   84.9217   10.1178 C.ar    1  UNL1        0.0058
     14 C          62.9530   85.3717   11.5479 C.ar    1  UNL1        0.0729
     15 C          63.1218   84.3730   12.6543 C.ar    1  UNL1        0.1069
     16 C          63.3380   82.9244   12.3305 C.ar    1  UNL1        0.0168
     17 N          63.0745   84.8229   14.0845 N.ar    1  UNL1       -0.1477
     18 N          64.2163   85.4053   14.8637 N.ar    1  UNL1       -0.1447
     19 C          63.7247   85.7118   16.2473 C.ar    1  UNL1        0.1446
     20 C          62.2791   85.3188   16.3232 C.ar    1  UNL1        0.1446
     21 N          61.8773   84.7694   14.9865 N.ar    1  UNL1       -0.1447
     22 C          62.3045   89.7175   12.5191 C.3     1  UNL1        0.0510
     23 C          63.4355   90.6377   12.1667 C.ar    1  UNL1        0.0071
     24 C          64.4712   90.9813   13.1959 C.ar    1  UNL1       -0.0004
     25 C          65.6022   91.9015   12.8435 C.ar    1  UNL1        0.0192
     26 C          65.6975   92.4780   11.4620 C.ar    1  UNL1        0.0038
     27 C          64.6618   92.1343   10.4329 C.ar    1  UNL1        0.0294
     28 C          63.5308   91.2141   10.7853 C.ar    1  UNL1        0.1362
     29 F          62.4951   90.8704    9.7560 F       1  UNL1       -0.2045
     30 C          66.6380   92.2452   13.8727 C.ar    1  UNL1        0.1029
     31 C          66.2300   92.4861   15.2959 C.ar    1  UNL1        0.0226
     32 C          67.2657   92.8298   16.3251 C.ar    1  UNL1        0.0241
     33 C          68.7094   92.9325   15.9311 C.ar    1  UNL1        0.1222
     34 N          69.1173   92.6916   14.5078 N.ar    1  UNL1       -0.1464
     35 N          68.0816   92.3480   13.4787 N.ar    1  UNL1       -0.1480
@<TRIPOS>BOND
     1    10    11    1
     2    11    12   ar
     3    12    13   ar
     4    13    14   ar
     5    14     1    1
     6     1     2    2
     7     1     3   am
     8     3     4    1
     9     4     5    1
    10     5     6    1
    11     5     7    1
    12     7     8    1
    13     8     9    1
    14     9    22    1
    15    22    23    1
    16    23    24   ar
    17    24    25   ar
    18    25    30    1
    19    30    31   ar
    20    31    32   ar
    21    32    33   ar
    22    33    34   ar
    23    34    35   ar
    24    25    26   ar
    25    26    27   ar
    26    27    28   ar
    27    28    29    1
    28    14    15   ar
    29    15    17    1
    30    17    18   ar
    31    18    19   ar
    32    19    20   ar
    33    20    21   ar
    34    15    16   ar
    35    16    11   ar
    36     9     3    1
    37    28    23   ar
    38    21    17   ar
    39    35    30   ar
@<TRIPOS>MOLECULE
*****
 35 39 0 0 0
SMALL
GASTEIGER

@<TRIPOS>ATOM
      1 C          62.9652   87.1970   12.3195 C.2     1  UNL1        0.2506
      2 O          63.5903   87.5969   13.6231 O.2     1  UNL1       -0.2699
      3 N          62.2388   88.2158   11.4923 N.am    1  UNL1       -0.2724
      4 C          61.6137   87.8159   10.1887 C.3     1  UNL1        0.1231
      5 C          60.8873   88.8347    9.3615 C.3     1  UNL1        0.1351
      6 C          60.2622   88.4348    8.0578 C.3     1  UNL1        0.0339
      7 O          60.7859   90.2534    9.8379 O.3     1  UNL1       -0.3527
      8 C          61.4109   90.6533   11.1414 C.3     1  UNL1        0.1621
      9 C          62.1374   89.6345   11.9687 C.3     1  UNL1        0.1097
     10 C          63.3709   81.5221   10.4140 C.3     1  UNL1        0.0311
     11 C          63.2694   82.9408   10.8904 C.ar    1  UNL1       -0.0203
     12 C          63.1854   84.0614    9.8968 C.ar    1  UNL1       -0.0040
     13 C          63.0840   85.4801   10.3732 C.ar    1  UNL1        0.0058
     14 C          63.0666   85.7783   11.8431 C.ar    1  UNL1        0.0729
     15 C          63.1507   84.6577   12.8367 C.ar    1  UNL1        0.1069
     16 C          63.2521   83.2390   12.3603 C.ar    1  UNL1        0.0168
     17 N          63.1334   84.9558   14.3067 N.ar    1  UNL1       -0.1477
     18 N          61.9390   84.8688   15.2100 N.ar    1  UNL1       -0.1447
     19 C          62.3748   85.2525   16.5930 C.ar    1  UNL1        0.1446
     20 C          63.8386   85.5766   16.5445 C.ar    1  UNL1        0.1446
     21 N          64.3074   85.3932   15.1315 N.ar    1  UNL1       -0.1447
     22 C          62.7624   90.0344   13.2723 C.3     1  UNL1        0.0510
     23 C          64.0985   90.7161   13.2855 C.ar    1  UNL1        0.0071
     24 C          64.5215   91.5600   12.1198 C.ar    1  UNL1       -0.0004
     25 C          65.8576   92.2417   12.1331 C.ar    1  UNL1        0.0192
     26 C          66.7706   92.0796   13.3120 C.ar    1  UNL1        0.0038
     27 C          66.3476   91.2357   14.4777 C.ar    1  UNL1        0.0294
     28 C          65.0115   90.5540   14.4645 C.ar    1  UNL1        0.1362
     29 F          64.5885   89.7101   15.6303 F       1  UNL1       -0.2045
     30 C          66.2806   93.0856   10.9673 C.ar    1  UNL1        0.1029
     31 C          67.3880   92.6217   10.0682 C.ar    1  UNL1        0.0226
     32 C          67.8110   93.4655    8.9024 C.ar    1  UNL1        0.0241
     33 C          67.1265   94.7734    8.6358 C.ar    1  UNL1        0.1222
     34 N          66.0191   95.2373    9.5349 N.ar    1  UNL1       -0.1464
     35 N          65.5961   94.3934   10.7007 N.ar    1  UNL1       -0.1480
@<TRIPOS>BOND
     1    10    11    1
     2    11    12   ar
     3    12    13   ar
     4    13    14   ar
     5    14     1    1
     6     1     2    2
     7     1     3   am
     8     3     4    1
     9     4     5    1
    10     5     6    1
    11     5     7    1
    12     7     8    1
    13     8     9    1
    14     9    22    1
    15    22    23    1
    16    23    24   ar
    17    24    25   ar
    18    25    30    1
    19    30    31   ar
    20    31    32   ar
    21    32    33   ar
    22    33    34   ar
    23    34    35   ar
    24    25    26   ar
    25    26    27   ar
    26    27    28   ar
    27    28    29    1
    28    14    15   ar
    29    15    17    1
    30    17    18   ar
    31    18    19   ar
    32    19    20   ar
    33    20    21   ar
    34    15    16   ar
    35    16    11   ar
    36     9     3    1
    37    28    23   ar
    38    21    17   ar
    39    35    30   ar
@<TRIPOS>MOLECULE
*****
 35 39 0 0 0
SMALL
GASTEIGER

@<TRIPOS>ATOM
      1 C          62.7733   86.5325   12.3075 C.2     1  UNL1        0.2506
      2 O          63.4680   87.2862   13.4025 O.2     1  UNL1       -0.2699
      3 N          61.9288   87.2682   11.3097 N.am    1  UNL1       -0.2724
      4 C          61.2340   86.5144   10.2146 C.3     1  UNL1        0.1231
      5 C          60.3895   87.2501    9.2168 C.3     1  UNL1        0.1351
      6 C          59.6946   86.4964    8.1216 C.3     1  UNL1        0.0339
      7 O          60.2397   88.7394    9.3140 O.3     1  UNL1       -0.3527
      8 C          60.9345   89.4931   10.4091 C.3     1  UNL1        0.1621
      9 C          61.7791   88.7575   11.4069 C.3     1  UNL1        0.1097
     10 C          63.3722   80.5752   11.9185 C.3     1  UNL1        0.0311
     11 C          63.2225   82.0645   12.0157 C.ar    1  UNL1       -0.0203
     12 C          63.1817   82.8972   10.7688 C.ar    1  UNL1       -0.0040
     13 C          63.0320   84.3866   10.8660 C.ar    1  UNL1        0.0058
     14 C          62.9230   85.0432   12.2102 C.ar    1  UNL1        0.0729
     15 C          62.9638   84.2105   13.4572 C.ar    1  UNL1        0.1069
     16 C          63.1135   82.7212   13.3599 C.ar    1  UNL1        0.0168
     17 N          62.8548   84.8671   14.8014 N.ar    1  UNL1       -0.1477
     18 N          64.0011   85.2831   15.6750 N.ar    1  UNL1       -0.1447
     19 C          63.4353   85.8961   16.9216 C.ar    1  UNL1        0.1446
     20 C          61.9392   85.8590   16.8185 C.ar    1  UNL1        0.1446
     21 N          61.5805   85.2230   15.5082 N.ar    1  UNL1       -0.1447
     22 C          62.4738   89.5112   12.5020 C.3     1  UNL1        0.0510
     23 C          63.5272   90.5241   12.1638 C.ar    1  UNL1        0.0071
     24 C          64.5402   90.9254   13.1947 C.ar    1  UNL1       -0.0004
     25 C          65.5936   91.9383   12.8565 C.ar    1  UNL1        0.0192
     26 C          65.6341   92.5499   11.4875 C.ar    1  UNL1        0.0038
     27 C          64.6211   92.1485   10.4566 C.ar    1  UNL1        0.0294
     28 C          63.5677   91.1356   10.7948 C.ar    1  UNL1        0.1362
     29 F          62.5547   90.7343    9.7638 F       1  UNL1       -0.2045
     30 C          66.6067   92.3397   13.8875 C.ar    1  UNL1        0.1029
     31 C          68.0219   91.8551   13.7768 C.ar    1  UNL1        0.0226
     32 C          69.0349   92.2564   14.8077 C.ar    1  UNL1        0.0241
     33 C          68.6326   93.1423   15.9494 C.ar    1  UNL1        0.1222
     34 N          67.2173   93.6269   16.0601 N.ar    1  UNL1       -0.1464
     35 N          66.2044   93.2255   15.0291 N.ar    1  UNL1       -0.1480
@<TRIPOS>BOND
     1    10    11    1
     2    11    12   ar
     3    12    13   ar
     4    13    14   ar
     5    14     1    1
     6     1     2    2
     7     1     3   am
     8     3     4    1
     9     4     5    1
    10     5     6    1
    11     5     7    1
    12     7     8    1
    13     8     9    1
    14     9    22    1
    15    22    23    1
    16    23    24   ar
    17    24    25   ar
    18    25    30    1
    19    30    31   ar
    20    31    32   ar
    21    32    33   ar
    22    33    34   ar
    23    34    35   ar
    24    25    26   ar
    25    26    27   ar
    26    27    28   ar
    27    28    29    1
    28    14    15   ar
    29    15    17    1
    30    17    18   ar
    31    18    19   ar
    32    19    20   ar
    33    20    21   ar
    34    15    16   ar
    35    16    11   ar
    36     9     3    1
    37    28    23   ar
    38    21    17   ar
    39    35    30   ar
@<TRIPOS>MOLECULE
*****
 35 39 0 0 0
SMALL
GASTEIGER

@<TRIPOS>ATOM
      1 C          62.6388   88.7141   11.6675 C.2     1  UNL1        0.2506
      2 O          62.4842   90.2060   11.6506 O.2     1  UNL1       -0.2699
      3 N          63.3515   88.0468   12.8061 N.am    1  UNL1       -0.2724
      4 C          63.5061   86.5548   12.8230 C.3     1  UNL1        0.1231
      5 C          64.2188   85.8875   13.9617 C.3     1  UNL1        0.1351
      6 C          64.3734   84.3955   13.9786 C.3     1  UNL1        0.0339
      7 O          64.7770   86.7120   15.0836 O.3     1  UNL1       -0.3527
      8 C          64.6224   88.2039   15.0667 C.3     1  UNL1        0.1621
      9 C          63.9097   88.8714   13.9280 C.3     1  UNL1        0.1097
     10 C          60.4061   85.4159    7.1800 C.3     1  UNL1        0.0311
     11 C          60.9643   86.2405    8.3019 C.ar    1  UNL1       -0.0203
     12 C          62.4092   86.1090    8.6825 C.ar    1  UNL1       -0.0040
     13 C          62.9674   86.9335    9.8043 C.ar    1  UNL1        0.0058
     14 C          62.0806   87.8896   10.5456 C.ar    1  UNL1        0.0729
     15 C          60.6357   88.0211   10.1650 C.ar    1  UNL1        0.1069
     16 C          60.0775   87.1965    9.0432 C.ar    1  UNL1        0.0168
     17 N          59.7489   88.9772   10.9063 N.ar    1  UNL1       -0.1477
     18 N          59.5180   90.4175   10.5566 N.ar    1  UNL1       -0.1447
     19 C          58.5637   90.9914   11.5616 C.ar    1  UNL1        0.1446
     20 C          58.2048   89.9057   12.5324 C.ar    1  UNL1        0.1446
     21 N          58.9372   88.6609   12.1275 N.ar    1  UNL1       -0.1447
     22 C          63.7551   90.3632   13.9112 C.3     1  UNL1        0.0510
     23 C          64.9686   91.2422   13.8419 C.ar    1  UNL1        0.0071
     24 C          65.5115   91.6677   12.5100 C.ar    1  UNL1       -0.0004
     25 C          66.7250   92.5467   12.4408 C.ar    1  UNL1        0.0192
     26 C          67.3956   93.0002   13.7035 C.ar    1  UNL1        0.0038
     27 C          66.8527   92.5748   15.0355 C.ar    1  UNL1        0.0294
     28 C          65.6392   91.6958   15.1047 C.ar    1  UNL1        0.1362
     29 F          65.0963   91.2704   16.4368 F       1  UNL1       -0.2045
     30 C          67.2679   92.9721   11.1087 C.ar    1  UNL1        0.1029
     31 C          67.9935   91.9841   10.2443 C.ar    1  UNL1        0.0226
     32 C          68.5365   92.4095    8.9122 C.ar    1  UNL1        0.0241
     33 C          68.3537   93.8230    8.4446 C.ar    1  UNL1        0.1222
     34 N          67.6281   94.8111    9.3091 N.ar    1  UNL1       -0.1464
     35 N          67.0852   94.3856   10.6411 N.ar    1  UNL1       -0.1480
@<TRIPOS>BOND
     1    10    11    1
     2    11    12   ar
     3    12    13   ar
     4    13    14   ar
     5    14     1    1
     6     1     2    2
     7     1     3   am
     8     3     4    1
     9     4     5    1
    10     5     6    1
    11     5     7    1
    12     7     8    1
    13     8     9    1
    14     9    22    1
    15    22    23    1
    16    23    24   ar
    17    24    25   ar
    18    25    30    1
    19    30    31   ar
    20    31    32   ar
    21    32    33   ar
    22    33    34   ar
    23    34    35   ar
    24    25    26   ar
    25    26    27   ar
    26    27    28   ar
    27    28    29    1
    28    14    15   ar
    29    15    17    1
    30    17    18   ar
    31    18    19   ar
    32    19    20   ar
    33    20    21   ar
    34    15    16   ar
    35    16    11   ar
    36     9     3    1
    37    28    23   ar
    38    21    17   ar
    39    35    30   ar
@<TRIPOS>MOLECULE
*****
 35 39 0 0 0
SMALL
GASTEIGER

@<TRIPOS>ATOM
      1 C          63.4839   87.7361   13.3198 C.2     1  UNL1        0.2506
      2 O          63.6226   88.8036   12.2753 O.2     1  UNL1       -0.2699
      3 N          63.3560   88.1138   14.7658 N.am    1  UNL1       -0.2724
      4 C          63.2173   87.0462   15.8104 C.3     1  UNL1        0.1231
      5 C          63.0894   87.4239   17.2564 C.3     1  UNL1        0.1351
      6 C          62.9507   86.3564   18.3010 C.3     1  UNL1        0.0339
      7 O          63.1001   88.8692   17.6578 O.3     1  UNL1       -0.3527
      8 C          63.2387   89.9367   16.6133 C.3     1  UNL1        0.1621
      9 C          63.3667   89.5590   15.1672 C.3     1  UNL1        0.1097
     10 C          63.4412   81.9551   11.7140 C.3     1  UNL1        0.0311
     11 C          63.4519   83.4003   12.1155 C.ar    1  UNL1       -0.0203
     12 C          64.3019   83.8530   13.2655 C.ar    1  UNL1       -0.0040
     13 C          64.3125   85.2983   13.6669 C.ar    1  UNL1        0.0058
     14 C          63.4733   86.2908   12.9184 C.ar    1  UNL1        0.0729
     15 C          62.6233   85.8381   11.7683 C.ar    1  UNL1        0.1069
     16 C          62.6126   84.3929   11.3669 C.ar    1  UNL1        0.0168
     17 N          61.7840   86.8307   11.0197 N.ar    1  UNL1       -0.1477
     18 N          60.5360   87.4904   11.5270 N.ar    1  UNL1       -0.1447
     19 C          60.0259   88.4052   10.4532 C.ar    1  UNL1        0.1446
     20 C          60.9587   88.3108    9.2823 C.ar    1  UNL1        0.1446
     21 N          62.0452   87.3377    9.6324 N.ar    1  UNL1       -0.1447
     22 C          63.5053   90.6266   14.1227 C.3     1  UNL1        0.0510
     23 C          64.7499   91.4617   14.0644 C.ar    1  UNL1        0.0071
     24 C          65.3573   91.8110   12.7381 C.ar    1  UNL1       -0.0004
     25 C          66.6020   92.6461   12.6798 C.ar    1  UNL1        0.0192
     26 C          67.2392   93.1320   13.9478 C.ar    1  UNL1        0.0038
     27 C          66.6318   92.7828   15.2741 C.ar    1  UNL1        0.0294
     28 C          65.3871   91.9476   15.3324 C.ar    1  UNL1        0.1362
     29 F          64.7797   91.5984   16.6587 F       1  UNL1       -0.2045
     30 C          67.2094   92.9953   11.3535 C.ar    1  UNL1        0.1029
     31 C          67.9027   91.9393   10.5447 C.ar    1  UNL1        0.0226
     32 C          68.5101   92.2886    9.2183 C.ar    1  UNL1        0.0241
     33 C          68.4242   93.6938    8.7008 C.ar    1  UNL1        0.1222
     34 N          67.7309   94.7499    9.5097 N.ar    1  UNL1       -0.1464
     35 N          67.1235   94.4006   10.8360 N.ar    1  UNL1       -0.1480
@<TRIPOS>BOND
     1    10    11    1
     2    11    12   ar
     3    12    13   ar
     4    13    14   ar
     5    14     1    1
     6     1     2    2
     7     1     3   am
     8     3     4    1
     9     4     5    1
    10     5     6    1
    11     5     7    1
    12     7     8    1
    13     8     9    1
    14     9    22    1
    15    22    23    1
    16    23    24   ar
    17    24    25   ar
    18    25    30    1
    19    30    31   ar
    20    31    32   ar
    21    32    33   ar
    22    33    34   ar
    23    34    35   ar
    24    25    26   ar
    25    26    27   ar
    26    27    28   ar
    27    28    29    1
    28    14    15   ar
    29    15    17    1
    30    17    18   ar
    31    18    19   ar
    32    19    20   ar
    33    20    21   ar
    34    15    16   ar
    35    16    11   ar
    36     9     3    1
    37    28    23   ar
    38    21    17   ar
    39    35    30   ar
