@<TRIPOS>MOLECULE
*****
 40 44 0 0 0
SMALL
GASTEIGER

@<TRIPOS>ATOM
      1 N          62.0402   90.0631   10.6611 N.pl3   1  UNL1       -0.3426
      2 C          62.4424   88.8055   11.3729 C.ar    1  UNL1        0.1258
      3 N          63.2822   88.8816   12.6134 N.ar    1  UNL1       -0.2296
      4 C          63.6844   87.6241   13.3252 C.ar    1  UNL1        0.1008
      5 C          63.2469   86.2902   12.7965 C.ar    1  UNL1        0.0283
      6 C          62.4071   86.2141   11.5560 C.ar    1  UNL1        0.0337
      7 S          61.8300   85.0512   10.8045 S.2     1  UNL1       -0.0863
      8 C          61.0711   85.5902    9.6282 C.ar    1  UNL1        0.0355
      9 C          61.1792   87.0861    9.6527 C.ar    1  UNL1        0.0096
     10 C          62.0049   87.4717   10.8442 C.ar    1  UNL1        0.0377
     11 H          62.3274   90.9385   11.0081 H       1  UNL1        0.1437
     12 H          61.4890   90.0131    9.8469 H       1  UNL1        0.1437
     13 C          60.5687   88.0305    8.6601 C.ar    1  UNL1        0.0007
     14 C          60.5638   89.5054    8.9331 C.ar    1  UNL1        0.0013
     15 C          59.9533   90.4500    7.9404 C.ar    1  UNL1        0.0147
     16 C          59.3478   89.9195    6.6748 C.ar    1  UNL1        0.0516
     17 C          59.3528   88.4445    6.4018 C.ar    1  UNL1        0.0147
     18 C          59.9632   87.5001    7.3944 C.ar    1  UNL1        0.0013
     19 N          58.7374   90.8640    5.6822 N.am    1  UNL1       -0.2681
     20 C          59.5956   91.5084    4.6342 C.2     1  UNL1        0.3082
     21 O          61.0643   91.2083    4.5789 O.2     1  UNL1       -0.2522
     22 N          58.9851   92.4528    3.6416 N.am    1  UNL1       -0.2680
     23 H          57.7735   91.0609    5.7185 H       1  UNL1        0.1564
     24 H          58.0212   92.6497    3.6779 H       1  UNL1        0.1564
     25 C          59.8434   93.0972    2.5936 C.ar    1  UNL1        0.0538
     26 C          60.3393   94.4994    2.7886 C.ar    1  UNL1        0.0149
     27 C          61.1976   95.1438    1.7405 C.ar    1  UNL1        0.0036
     28 C          61.5597   94.3861    0.4977 C.ar    1  UNL1        0.0297
     29 C          61.0637   92.9840    0.3028 C.ar    1  UNL1        0.1414
     30 F          61.4259   92.2263   -0.9401 F       1  UNL1       -0.2041
     31 C          60.2055   92.3395    1.3507 C.ar    1  UNL1        0.0443
     32 C          63.6491   85.0327   13.5084 C.ar    1  UNL1        0.0416
     33 C          64.4002   84.9549   14.8045 C.ar    1  UNL1        0.1217
     34 N          64.5862   83.5062   15.1462 N.ar    1  UNL1       -0.1676
     35 N          63.9501   82.6887   14.0613 N.ar    1  UNL1       -0.2468
     36 C          63.3710   83.6321   13.0490 C.ar    1  UNL1        0.0968
     37 C          63.9016   81.1907   13.9994 C.3     1  UNL1        0.1591
     38 C          62.5831   80.4878   13.8678 C.3     1  UNL1        0.1635
     39 O          61.3532   81.0775   14.4918 O.3     1  UNL1       -0.3799
     40 H          61.4453   81.0703   15.4574 H       1  UNL1        0.2105
@<TRIPOS>BOND
     1     1     2    1
     2     2     3   ar
     3     3     4   ar
     4     4     5   ar
     5     5    32    1
     6    32    33   ar
     7    33    34   ar
     8    34    35   ar
     9    35    37    1
    10    37    38    1
    11    38    39    1
    12    35    36   ar
    13     5     6   ar
    14     6     7   ar
    15     7     8   ar
    16     8     9   ar
    17     9    13    1
    18    13    14   ar
    19    14    15   ar
    20    15    16   ar
    21    16    19    1
    22    19    20   am
    23    20    21    2
    24    20    22   am
    25    22    25    1
    26    25    26   ar
    27    26    27   ar
    28    27    28   ar
    29    28    29   ar
    30    29    30    1
    31    29    31   ar
    32    16    17   ar
    33    17    18   ar
    34     9    10   ar
    35    10     2   ar
    36    36    32   ar
    37    10     6   ar
    38    18    13   ar
    39    31    25   ar
    40     1    11    1
    41     1    12    1
    42    39    40    1
    43    19    23    1
    44    22    24    1
@<TRIPOS>MOLECULE
*****
 40 44 0 0 0
SMALL
GASTEIGER

@<TRIPOS>ATOM
      1 N          61.9356   86.0126    7.1322 N.pl3   1  UNL1       -0.3426
      2 C          62.2529   85.5308    8.5168 C.ar    1  UNL1        0.1258
      3 N          63.1440   84.3399    8.7107 N.ar    1  UNL1       -0.2296
      4 C          63.4613   83.8582   10.0953 C.ar    1  UNL1        0.1008
      5 C          62.8876   84.5674   11.2861 C.ar    1  UNL1        0.0283
      6 C          61.9965   85.7583   11.0922 C.ar    1  UNL1        0.0337
      7 S          61.2903   86.6528   12.0675 S.2     1  UNL1       -0.0863
      8 C          60.5365   87.6873   11.2856 C.ar    1  UNL1        0.0355
      9 C          60.7768   87.4323    9.8271 C.ar    1  UNL1        0.0096
     10 C          61.6792   86.2400    9.7076 C.ar    1  UNL1        0.0377
     11 H          62.3121   85.5471    6.3507 H       1  UNL1        0.1437
     12 H          61.3507   86.7942    7.0049 H       1  UNL1        0.1437
     13 C          60.2136   88.2295    8.6881 C.ar    1  UNL1        0.0007
     14 C          59.2447   87.5946    7.7352 C.ar    1  UNL1        0.0013
     15 C          58.6815   88.3918    6.5961 C.ar    1  UNL1        0.0147
     16 C          59.0871   89.8238    6.4101 C.ar    1  UNL1        0.0516
     17 C          60.0561   90.4587    7.3631 C.ar    1  UNL1        0.0147
     18 C          60.6193   89.6615    8.5021 C.ar    1  UNL1        0.0013
     19 N          58.5240   90.6210    5.2711 N.am    1  UNL1       -0.2681
     20 C          59.4410   91.3986    4.3743 C.2     1  UNL1        0.3082
     21 O          60.9212   91.3790    4.6164 O.2     1  UNL1       -0.2522
     22 N          58.8778   92.1958    3.2353 N.am    1  UNL1       -0.2680
     23 H          57.5525   90.6338    5.1122 H       1  UNL1        0.1564
     24 H          57.9063   92.2086    3.0764 H       1  UNL1        0.1564
     25 C          59.7949   92.9735    2.3384 C.ar    1  UNL1        0.0538
     26 C          60.2032   94.3680    2.7108 C.ar    1  UNL1        0.0149
     27 C          61.1202   95.1456    1.8139 C.ar    1  UNL1        0.0036
     28 C          61.6288   94.5288    0.5447 C.ar    1  UNL1        0.0297
     29 C          61.2205   93.1343    0.1724 C.ar    1  UNL1        0.1414
     30 F          61.7291   92.5175   -1.0967 F       1  UNL1       -0.2041
     31 C          60.3035   92.3566    1.0692 C.ar    1  UNL1        0.0443
     32 C          63.2050   84.0855   12.6708 C.ar    1  UNL1        0.0416
     33 C          63.6619   82.7056   13.0410 C.ar    1  UNL1        0.1217
     34 N          63.8605   82.6663   14.5273 N.ar    1  UNL1       -0.1676
     35 N          63.5264   84.0220   15.0755 N.ar    1  UNL1       -0.2468
     36 C          63.1213   84.8991   13.9281 C.ar    1  UNL1        0.0968
     37 C          63.5868   84.4292   16.5180 C.3     1  UNL1        0.1591
     38 C          63.1495   85.8041   16.9282 C.3     1  UNL1        0.1635
     39 O          61.6952   86.0919   17.1557 O.3     1  UNL1       -0.3799
     40 H          61.2148   86.0124   16.3168 H       1  UNL1        0.2105
@<TRIPOS>BOND
     1     1     2    1
     2     2     3   ar
     3     3     4   ar
     4     4     5   ar
     5     5    32    1
     6    32    33   ar
     7    33    34   ar
     8    34    35   ar
     9    35    37    1
    10    37    38    1
    11    38    39    1
    12    35    36   ar
    13     5     6   ar
    14     6     7   ar
    15     7     8   ar
    16     8     9   ar
    17     9    13    1
    18    13    14   ar
    19    14    15   ar
    20    15    16   ar
    21    16    19    1
    22    19    20   am
    23    20    21    2
    24    20    22   am
    25    22    25    1
    26    25    26   ar
    27    26    27   ar
    28    27    28   ar
    29    28    29   ar
    30    29    30    1
    31    29    31   ar
    32    16    17   ar
    33    17    18   ar
    34     9    10   ar
    35    10     2   ar
    36    36    32   ar
    37    10     6   ar
    38    18    13   ar
    39    31    25   ar
    40     1    11    1
    41     1    12    1
    42    39    40    1
    43    19    23    1
    44    22    24    1
@<TRIPOS>MOLECULE
*****
 40 44 0 0 0
SMALL
GASTEIGER

@<TRIPOS>ATOM
      1 N          61.5983   90.8083    9.1542 N.pl3   1  UNL1       -0.3426
      2 C          61.7853   89.4754    9.8165 C.ar    1  UNL1        0.1258
      3 N          62.5562   89.3769   11.0994 N.ar    1  UNL1       -0.2296
      4 C          62.7432   88.0442   11.7616 C.ar    1  UNL1        0.1008
      5 C          62.1593   86.8097   11.1409 C.ar    1  UNL1        0.0283
      6 C          61.3883   86.9082    9.8580 C.ar    1  UNL1        0.0337
      7 S          60.7022   85.8725    9.0174 S.2     1  UNL1       -0.0863
      8 C          60.0911   86.5653    7.8356 C.ar    1  UNL1        0.0355
      9 C          60.3996   88.0291    7.9458 C.ar    1  UNL1        0.0096
     10 C          61.2014   88.2410    9.1957 C.ar    1  UNL1        0.0377
     11 H          61.9816   91.6184    9.5616 H       1  UNL1        0.1437
     12 H          61.0923   90.8729    8.3122 H       1  UNL1        0.1437
     13 C          59.9800   89.0940    6.9763 C.ar    1  UNL1        0.0007
     14 C          58.5253   89.4108    6.7935 C.ar    1  UNL1        0.0013
     15 C          58.1057   90.4758    5.8240 C.ar    1  UNL1        0.0147
     16 C          59.1407   91.2239    5.0374 C.ar    1  UNL1        0.0516
     17 C          60.5955   90.9070    5.2202 C.ar    1  UNL1        0.0147
     18 C          61.0152   89.8422    6.1897 C.ar    1  UNL1        0.0013
     19 N          58.7212   92.2888    4.0679 N.am    1  UNL1       -0.2681
     20 C          59.6918   92.7931    3.0415 C.2     1  UNL1        0.3082
     21 O          61.0820   92.2326    2.9846 O.2     1  UNL1       -0.2522
     22 N          59.2722   93.8581    2.0720 N.am    1  UNL1       -0.2680
     23 H          57.8087   92.6566    4.1052 H       1  UNL1        0.1564
     24 H          58.3598   94.2259    2.1094 H       1  UNL1        0.1564
     25 C          60.2428   94.3625    1.0456 C.ar    1  UNL1        0.0538
     26 C          60.9966   95.6364    1.2885 C.ar    1  UNL1        0.0149
     27 C          61.9672   96.1409    0.2620 C.ar    1  UNL1        0.0036
     28 C          62.1840   95.3714   -1.0072 C.ar    1  UNL1        0.0297
     29 C          61.4302   94.0975   -1.2500 C.ar    1  UNL1        0.1414
     30 F          61.6470   93.3281   -2.5192 F       1  UNL1       -0.2041
     31 C          60.4596   93.5930   -0.2236 C.ar    1  UNL1        0.0443
     32 C          62.3463   85.4768   11.8032 C.ar    1  UNL1        0.0416
     33 C          62.3487   85.2192   13.2809 C.ar    1  UNL1        0.1217
     34 N          62.5677   83.7507   13.4950 N.ar    1  UNL1       -0.1676
     35 N          62.7006   83.1009   12.1496 N.ar    1  UNL1       -0.2468
     36 C          62.5637   84.1677   11.1040 C.ar    1  UNL1        0.0968
     37 C          62.9300   81.6407   11.8945 C.3     1  UNL1        0.1591
     38 C          62.5483   80.6286   12.9337 C.3     1  UNL1        0.1635
     39 O          63.1902   80.6664   14.2888 O.3     1  UNL1       -0.3799
     40 H          64.1351   80.4642   14.2047 H       1  UNL1        0.2105
@<TRIPOS>BOND
     1     1     2    1
     2     2     3   ar
     3     3     4   ar
     4     4     5   ar
     5     5    32    1
     6    32    33   ar
     7    33    34   ar
     8    34    35   ar
     9    35    37    1
    10    37    38    1
    11    38    39    1
    12    35    36   ar
    13     5     6   ar
    14     6     7   ar
    15     7     8   ar
    16     8     9   ar
    17     9    13    1
    18    13    14   ar
    19    14    15   ar
    20    15    16   ar
    21    16    19    1
    22    19    20   am
    23    20    21    2
    24    20    22   am
    25    22    25    1
    26    25    26   ar
    27    26    27   ar
    28    27    28   ar
    29    28    29   ar
    30    29    30    1
    31    29    31   ar
    32    16    17   ar
    33    17    18   ar
    34     9    10   ar
    35    10     2   ar
    36    36    32   ar
    37    10     6   ar
    38    18    13   ar
    39    31    25   ar
    40     1    11    1
    41     1    12    1
    42    39    40    1
    43    19    23    1
    44    22    24    1
@<TRIPOS>MOLECULE
*****
 40 44 0 0 0
SMALL
GASTEIGER

@<TRIPOS>ATOM
      1 N          62.7951   88.1270   10.8051 N.pl3   1  UNL1       -0.3426
      2 C          62.7133   86.7467   11.3864 C.ar    1  UNL1        0.1258
      3 N          62.0753   85.6390   10.6016 N.ar    1  UNL1       -0.2296
      4 C          61.9934   84.2587   11.1828 C.ar    1  UNL1        0.1008
      5 C          62.5496   83.9859   12.5490 C.ar    1  UNL1        0.0283
      6 C          63.1876   85.0936   13.3338 C.ar    1  UNL1        0.0337
      7 S          63.8180   85.1255   14.6945 S.2     1  UNL1       -0.0863
      8 C          64.2894   86.5256   14.9542 C.ar    1  UNL1        0.0355
      9 C          63.9504   87.3590   13.7540 C.ar    1  UNL1        0.0096
     10 C          63.2694   86.4740   12.7525 C.ar    1  UNL1        0.0377
     11 H          62.4301   88.3060    9.9084 H       1  UNL1        0.1437
     12 H          63.2139   88.8541   11.3202 H       1  UNL1        0.1437
     13 C          64.2413   88.8208   13.5850 C.ar    1  UNL1        0.0007
     14 C          63.5112   89.6152   12.5430 C.ar    1  UNL1        0.0013
     15 C          63.8021   91.0770   12.3739 C.ar    1  UNL1        0.0147
     16 C          64.8231   91.7444   13.2468 C.ar    1  UNL1        0.0516
     17 C          65.5533   90.9499   14.2888 C.ar    1  UNL1        0.0147
     18 C          65.2624   89.4882   14.4579 C.ar    1  UNL1        0.0013
     19 N          65.1140   93.2061   13.0777 N.am    1  UNL1       -0.2681
     20 C          65.4930   93.7444   11.7299 C.2     1  UNL1        0.3082
     21 O          65.5811   92.8209   10.5512 O.2     1  UNL1       -0.2522
     22 N          65.7839   95.2062   11.5609 N.am    1  UNL1       -0.2680
     23 H          65.0562   93.8122   13.8514 H       1  UNL1        0.1564
     24 H          65.7261   95.8123   12.3346 H       1  UNL1        0.1564
     25 C          66.1630   95.7445   10.2130 C.ar    1  UNL1        0.0538
     26 C          67.6047   95.9973    9.8848 C.ar    1  UNL1        0.0149
     27 C          67.9837   96.5356    8.5370 C.ar    1  UNL1        0.0036
     28 C          66.9211   96.8212    7.5175 C.ar    1  UNL1        0.0297
     29 C          65.4794   96.5684    7.8458 C.ar    1  UNL1        0.1414
     30 F          64.4169   96.8540    6.8263 F       1  UNL1       -0.2041
     31 C          65.1004   96.0301    9.1936 C.ar    1  UNL1        0.0443
     32 C          62.4677   82.6055   13.1302 C.ar    1  UNL1        0.0416
     33 C          63.6295   81.7082   13.4382 C.ar    1  UNL1        0.1217
     34 N          63.0894   80.4282   14.0039 N.ar    1  UNL1       -0.1676
     35 N          61.5937   80.5345   14.0454 N.ar    1  UNL1       -0.2468
     36 C          61.2095   81.8802   13.5055 C.ar    1  UNL1        0.0968
     37 C          60.6482   79.4803   14.5401 C.3     1  UNL1        0.1591
     38 C          59.1794   79.5992   14.2605 C.3     1  UNL1        0.1635
     39 O          58.2036   79.6790   15.3968 O.3     1  UNL1       -0.3799
     40 H          58.2084   78.8417   15.8865 H       1  UNL1        0.2105
@<TRIPOS>BOND
     1     1     2    1
     2     2     3   ar
     3     3     4   ar
     4     4     5   ar
     5     5    32    1
     6    32    33   ar
     7    33    34   ar
     8    34    35   ar
     9    35    37    1
    10    37    38    1
    11    38    39    1
    12    35    36   ar
    13     5     6   ar
    14     6     7   ar
    15     7     8   ar
    16     8     9   ar
    17     9    13    1
    18    13    14   ar
    19    14    15   ar
    20    15    16   ar
    21    16    19    1
    22    19    20   am
    23    20    21    2
    24    20    22   am
    25    22    25    1
    26    25    26   ar
    27    26    27   ar
    28    27    28   ar
    29    28    29   ar
    30    29    30    1
    31    29    31   ar
    32    16    17   ar
    33    17    18   ar
    34     9    10   ar
    35    10     2   ar
    36    36    32   ar
    37    10     6   ar
    38    18    13   ar
    39    31    25   ar
    40     1    11    1
    41     1    12    1
    42    39    40    1
    43    19    23    1
    44    22    24    1
@<TRIPOS>MOLECULE
*****
 40 44 0 0 0
SMALL
GASTEIGER

@<TRIPOS>ATOM
      1 N          62.9024   87.1066   10.6812 N.pl3   1  UNL1       -0.3426
      2 C          62.7847   85.6886   11.1561 C.ar    1  UNL1        0.1258
      3 N          62.2888   84.6239   10.2231 N.ar    1  UNL1       -0.2296
      4 C          62.1711   83.2060   10.6979 C.ar    1  UNL1        0.1008
      5 C          62.5492   82.8527   12.1058 C.ar    1  UNL1        0.0283
      6 C          63.0451   83.9174   13.0389 C.ar    1  UNL1        0.0337
      7 S          63.4886   83.8698   14.4710 S.2     1  UNL1       -0.0863
      8 C          63.8804   85.2584   14.8812 C.ar    1  UNL1        0.0355
      9 C          63.6791   86.1641   13.7026 C.ar    1  UNL1        0.0096
     10 C          63.1628   85.3353   12.5640 C.ar    1  UNL1        0.0377
     11 H          62.6542   87.3384    9.7571 H       1  UNL1        0.1437
     12 H          63.2278   87.8054   11.2935 H       1  UNL1        0.1437
     13 C          63.9470   87.6396   13.6687 C.ar    1  UNL1        0.0007
     14 C          64.8343   88.2648   14.7040 C.ar    1  UNL1        0.0013
     15 C          65.1022   89.7403   14.6701 C.ar    1  UNL1        0.0147
     16 C          64.4829   90.5906   13.6009 C.ar    1  UNL1        0.0516
     17 C          63.5955   89.9654   12.5655 C.ar    1  UNL1        0.0147
     18 C          63.3276   88.4900   12.5994 C.ar    1  UNL1        0.0013
     19 N          64.7507   92.0661   13.5669 N.am    1  UNL1       -0.2681
     20 C          65.3339   92.6943   12.3360 C.2     1  UNL1        0.3082
     21 O          65.6491   91.8470   11.1390 O.2     1  UNL1       -0.2522
     22 N          65.6018   94.1698   12.3020 N.am    1  UNL1       -0.2680
     23 H          64.5439   92.6222   14.3526 H       1  UNL1        0.1564
     24 H          65.3949   94.7259   13.0877 H       1  UNL1        0.1564
     25 C          66.1849   94.7981   11.0710 C.ar    1  UNL1        0.0538
     26 C          65.8436   96.2157   10.7191 C.ar    1  UNL1        0.0149
     27 C          66.4268   96.8440    9.4881 C.ar    1  UNL1        0.0036
     28 C          67.3511   96.0547    8.6092 C.ar    1  UNL1        0.0297
     29 C          67.6923   94.6370    8.9612 C.ar    1  UNL1        0.1414
     30 F          68.6166   93.8478    8.0822 F       1  UNL1       -0.2041
     31 C          67.1092   94.0087   10.1921 C.ar    1  UNL1        0.0443
     32 C          62.4315   81.4346   12.5807 C.ar    1  UNL1        0.0416
     33 C          61.9994   80.9958   13.9484 C.ar    1  UNL1        0.1217
     34 N          62.0261   79.4964   13.9841 N.ar    1  UNL1       -0.1676
     35 N          62.4746   79.0087   12.6384 N.ar    1  UNL1       -0.2468
     36 C          62.7252   80.2066   11.7710 C.ar    1  UNL1        0.0968
     37 C          62.6430   77.5748   12.2314 C.3     1  UNL1        0.1591
     38 C          62.9268   77.2299   10.7995 C.3     1  UNL1        0.1635
     39 O          62.6859   75.8355   10.3020 O.3     1  UNL1       -0.3799
     40 H          63.2993   75.2253   10.7405 H       1  UNL1        0.2105
@<TRIPOS>BOND
     1     1     2    1
     2     2     3   ar
     3     3     4   ar
     4     4     5   ar
     5     5    32    1
     6    32    33   ar
     7    33    34   ar
     8    34    35   ar
     9    35    37    1
    10    37    38    1
    11    38    39    1
    12    35    36   ar
    13     5     6   ar
    14     6     7   ar
    15     7     8   ar
    16     8     9   ar
    17     9    13    1
    18    13    14   ar
    19    14    15   ar
    20    15    16   ar
    21    16    19    1
    22    19    20   am
    23    20    21    2
    24    20    22   am
    25    22    25    1
    26    25    26   ar
    27    26    27   ar
    28    27    28   ar
    29    28    29   ar
    30    29    30    1
    31    29    31   ar
    32    16    17   ar
    33    17    18   ar
    34     9    10   ar
    35    10     2   ar
    36    36    32   ar
    37    10     6   ar
    38    18    13   ar
    39    31    25   ar
    40     1    11    1
    41     1    12    1
    42    39    40    1
    43    19    23    1
    44    22    24    1
