@<TRIPOS>MOLECULE
*****
 49 55 0 0 0
SMALL
GASTEIGER

@<TRIPOS>ATOM
      1 C          59.9320   89.7969    6.9768 C.ar    1  UNL1        0.0481
      2 C          59.7293   88.3112    6.9376 C.ar    1  UNL1        0.0176
      3 C          59.7520   87.5172    8.2100 C.ar    1  UNL1        0.0382
      4 C          59.9774   88.2090    9.5218 C.ar    1  UNL1        0.1388
      5 C          60.1800   89.6948    9.5610 C.ar    1  UNL1        0.0382
      6 C          60.1574   90.4887    8.2886 C.ar    1  UNL1        0.0176
      7 N          59.8640   92.1786    3.1594 N.pl3   1  UNL1       -0.3041
      8 C          58.5984   91.9730    3.9377 C.3     1  UNL1        0.1122
      9 C          58.6210   91.1791    5.2102 C.3     1  UNL1        0.1122
     10 N          59.9093   90.5908    5.7044 N.pl3   1  UNL1       -0.3041
     11 C          61.1750   90.7965    4.9260 C.3     1  UNL1        0.1122
     12 C          61.1524   91.5904    3.6536 C.3     1  UNL1        0.1122
     13 C          59.7962   94.5604   -0.6579 C.ar    1  UNL1        0.0699
     14 C          59.7682   95.2648    0.6661 C.ar    1  UNL1        0.0190
     15 C          59.7908   94.4708    1.9385 C.ar    1  UNL1        0.0160
     16 C          59.8414   92.9726    1.8869 C.ar    1  UNL1        0.0480
     17 C          59.8694   92.2682    0.5629 C.ar    1  UNL1        0.0160
     18 C          59.8467   93.0622   -0.7095 C.ar    1  UNL1        0.0190
     19 N          59.0621   96.2964   -4.0511 N.ar    1  UNL1       -0.2024
     20 N          60.4155   96.8558   -3.7261 N.ar    1  UNL1       -0.1442
     21 C          60.8551   96.2736   -2.4155 C.ar    1  UNL1        0.2073
     22 N          59.7735   95.3544   -1.9305 N.ar    1  UNL1       -0.2398
     23 C          58.6654   95.3685   -2.9413 C.ar    1  UNL1        0.3522
     24 O          57.3853   94.5912   -2.8572 O.2     1  UNL1       -0.2444
     25 C          58.2483   96.6099   -5.2715 C.3     1  UNL1        0.1099
     26 C          58.9108   96.6879   -6.6150 C.3     1  UNL1        0.0265
     27 C          55.8752   96.6173   -6.3289 C.3     1  UNL1        0.0021
     28 C          56.7721   96.8455   -5.1485 C.3     1  UNL1        0.0245
     29 O          60.0000   87.4151   10.7942 O.3     1  UNL1       -0.4727
     30 C          61.3102   87.0187   11.4076 C.3     1  UNL1        0.2374
     31 C          62.1626   88.0491   12.0872 C.3     1  UNL1        0.1909
     32 C          62.0612   89.5349   11.9076 C.3     1  UNL1        0.1783
     33 O          63.1018   90.1788   12.7750 O.3     1  UNL1       -0.3266
     34 C          63.8464   89.0908   13.4907 C.3     1  UNL1        0.2315
     35 O          63.2659   87.7747   13.0656 O.3     1  UNL1       -0.3254
     36 C          64.6162   90.2294   14.0917 C.ar    1  UNL1        0.0410
     37 C          65.6957   90.9056   13.2997 C.ar    1  UNL1        0.0022
     38 C          66.4655   92.0442   13.9007 C.ar    1  UNL1        0.0113
     39 C          66.1559   92.5064   15.2936 C.ar    1  UNL1        0.0585
     40 CL         66.9257   93.6449   15.8946 Cl      1  UNL1       -0.0822
     41 C          65.0764   91.8301   16.0857 C.ar    1  UNL1        0.0226
     42 C          64.3065   90.6916   15.4847 C.ar    1  UNL1        0.0591
     43 CL         63.2270   90.0153   16.2767 Cl      1  UNL1       -0.0824
     44 C          64.7519   88.2410   14.3320 C.3     1  UNL1        0.1897
     45 N          64.2307   86.9814   14.9579 N.ar    1  UNL1       -0.2246
     46 C          64.6059   85.5825   14.5681 C.ar    1  UNL1        0.1974
     47 N          63.8498   84.6361   15.4527 N.ar    1  UNL1       -0.2007
     48 C          63.0073   85.4502   16.3894 C.ar    1  UNL1        0.2210
     49 N          63.2427   86.8997   16.0836 N.ar    1  UNL1       -0.1450
@<TRIPOS>BOND
     1    27    28    1
     2    28    25    1
     3    25    26    1
     4    25    19    1
     5    19    20   ar
     6    20    21   ar
     7    21    22   ar
     8    22    13    1
     9    13    14   ar
    10    14    15   ar
    11    15    16   ar
    12    16     7    1
    13     7     8    1
    14     8     9    1
    15     9    10    1
    16    10     1    1
    17     1     2   ar
    18     2     3   ar
    19     3     4   ar
    20     4    29    1
    21    29    30    1
    22    31    30    1
    23    31    32    1
    24    32    33    1
    25    33    34    1
    26    34    44    1
    27    44    45    1
    28    45    46   ar
    29    46    47   ar
    30    47    48   ar
    31    48    49   ar
    32    34    36    1
    33    36    37   ar
    34    37    38   ar
    35    38    39   ar
    36    39    40    1
    37    39    41   ar
    38    41    42   ar
    39    42    43    1
    40    34    35    1
    41     4     5   ar
    42     5     6   ar
    43    10    11    1
    44    11    12    1
    45    16    17   ar
    46    17    18   ar
    47    22    23   ar
    48    23    24    2
    49    23    19   ar
    50    18    13   ar
    51    12     7    1
    52     6     1   ar
    53    35    31    1
    54    49    45   ar
    55    42    36   ar
@<TRIPOS>MOLECULE
*****
 49 55 0 0 0
SMALL
GASTEIGER

@<TRIPOS>ATOM
      1 C          59.9059   89.8314    6.8786 C.ar    1  UNL1        0.0481
      2 C          60.2992   90.4818    8.1717 C.ar    1  UNL1        0.0176
      3 C          60.2670   89.6940    9.4478 C.ar    1  UNL1        0.0382
      4 C          59.8415   88.2557    9.4307 C.ar    1  UNL1        0.1388
      5 C          59.4481   87.6053    8.1375 C.ar    1  UNL1        0.0382
      6 C          59.4803   88.3931    6.8615 C.ar    1  UNL1        0.0176
      7 N          60.0025   92.1949    3.0505 N.pl3   1  UNL1       -0.3041
      8 C          61.2599   91.5698    3.5779 C.3     1  UNL1        0.1122
      9 C          61.2277   90.7819    4.8539 C.3     1  UNL1        0.1122
     10 N          59.9381   90.6192    5.6026 N.pl3   1  UNL1       -0.3041
     11 C          58.6807   91.2444    5.0751 C.3     1  UNL1        0.1122
     12 C          58.7129   92.0322    3.7991 C.3     1  UNL1        0.1122
     13 C          60.0991   94.5585   -0.7775 C.ar    1  UNL1        0.0699
     14 C          61.1968   94.7204    0.2317 C.ar    1  UNL1        0.0190
     15 C          61.1646   93.9325    1.5077 C.ar    1  UNL1        0.0160
     16 C          60.0346   92.9828    1.7744 C.ar    1  UNL1        0.0480
     17 C          58.9369   92.8210    0.7652 C.ar    1  UNL1        0.0160
     18 C          58.9691   93.6088   -0.5108 C.ar    1  UNL1        0.0190
     19 N          60.8591   96.2794   -4.1726 N.ar    1  UNL1       -0.2024
     20 N          59.5022   96.8382   -3.8618 N.ar    1  UNL1       -0.1442
     21 C          59.0523   96.2616   -2.5522 C.ar    1  UNL1        0.2073
     22 N          60.1312   95.3464   -2.0536 N.ar    1  UNL1       -0.2398
     23 C          61.2479   95.3575   -3.0551 C.ar    1  UNL1        0.3522
     24 O          62.5284   94.5826   -2.9564 O.2     1  UNL1       -0.2444
     25 C          61.6827   96.5884   -5.3876 C.3     1  UNL1        0.1099
     26 C          61.0359   96.6348   -6.7402 C.3     1  UNL1        0.0265
     27 C          64.0663   96.6348   -6.4202 C.3     1  UNL1        0.0021
     28 C          63.1531   96.8510   -5.2501 C.3     1  UNL1        0.0245
     29 O          59.8093   87.4679   10.7067 O.3     1  UNL1       -0.4727
     30 C          61.0905   87.0088   11.3372 C.3     1  UNL1        0.2374
     31 C          61.9724   87.9935   12.0464 C.3     1  UNL1        0.1909
     32 C          61.8821   89.4876   11.9490 C.3     1  UNL1        0.1783
     33 O          62.9532   90.0745   12.8198 O.3     1  UNL1       -0.3266
     34 C          63.7055   88.9430   13.4554 C.3     1  UNL1        0.2315
     35 O          63.0993   87.6569   12.9774 O.3     1  UNL1       -0.3254
     36 C          64.5038   90.0406   14.0942 C.ar    1  UNL1        0.0410
     37 C          65.6567   90.6556   13.3577 C.ar    1  UNL1        0.0022
     38 C          66.4551   91.7532   13.9965 C.ar    1  UNL1        0.0113
     39 C          66.1005   92.2357   15.3717 C.ar    1  UNL1        0.0585
     40 CL         66.8988   93.3332   16.0105 Cl      1  UNL1       -0.0822
     41 C          64.9476   91.6207   16.1083 C.ar    1  UNL1        0.0226
     42 C          64.1492   90.5230   15.4695 C.ar    1  UNL1        0.0591
     43 CL         62.9963   89.9080   16.2061 Cl      1  UNL1       -0.0824
     44 C          64.6246   88.0410   14.2246 C.3     1  UNL1        0.1897
     45 N          64.0806   86.8205   14.9061 N.ar    1  UNL1       -0.2246
     46 C          64.2937   85.4003   14.4733 C.ar    1  UNL1        0.1974
     47 N          63.5728   84.5080   15.4397 N.ar    1  UNL1       -0.2007
     48 C          62.9140   85.3768   16.4698 C.ar    1  UNL1        0.2210
     49 N          63.2279   86.8060   16.1400 N.ar    1  UNL1       -0.1450
@<TRIPOS>BOND
     1    27    28    1
     2    28    25    1
     3    25    26    1
     4    25    19    1
     5    19    20   ar
     6    20    21   ar
     7    21    22   ar
     8    22    13    1
     9    13    14   ar
    10    14    15   ar
    11    15    16   ar
    12    16     7    1
    13     7     8    1
    14     8     9    1
    15     9    10    1
    16    10     1    1
    17     1     2   ar
    18     2     3   ar
    19     3     4   ar
    20     4    29    1
    21    29    30    1
    22    31    30    1
    23    31    32    1
    24    32    33    1
    25    33    34    1
    26    34    44    1
    27    44    45    1
    28    45    46   ar
    29    46    47   ar
    30    47    48   ar
    31    48    49   ar
    32    34    36    1
    33    36    37   ar
    34    37    38   ar
    35    38    39   ar
    36    39    40    1
    37    39    41   ar
    38    41    42   ar
    39    42    43    1
    40    34    35    1
    41     4     5   ar
    42     5     6   ar
    43    10    11    1
    44    11    12    1
    45    16    17   ar
    46    17    18   ar
    47    22    23   ar
    48    23    24    2
    49    23    19   ar
    50    18    13   ar
    51    12     7    1
    52     6     1   ar
    53    35    31    1
    54    49    45   ar
    55    42    36   ar
@<TRIPOS>MOLECULE
*****
 49 55 0 0 0
SMALL
GASTEIGER

@<TRIPOS>ATOM
      1 C          60.1230   89.8506    7.2750 C.ar    1  UNL1        0.0481
      2 C          60.8436   90.4606    8.4405 C.ar    1  UNL1        0.0176
      3 C          60.9920   89.6886    9.7181 C.ar    1  UNL1        0.0382
      4 C          60.4197   88.3065    9.8299 C.ar    1  UNL1        0.1388
      5 C          59.6991   87.6965    8.6643 C.ar    1  UNL1        0.0382
      6 C          59.5507   88.4686    7.3868 C.ar    1  UNL1        0.0176
      7 N          59.6779   92.1667    3.4426 N.pl3   1  UNL1       -0.3041
      8 C          58.4777   91.9014    4.3022 C.3     1  UNL1        0.1122
      9 C          58.6260   91.1293    5.5797 C.3     1  UNL1        0.1122
     10 N          59.9746   90.6226    5.9975 N.pl3   1  UNL1       -0.3041
     11 C          61.1749   90.8880    5.1378 C.3     1  UNL1        0.1122
     12 C          61.0265   91.6601    3.8604 C.3     1  UNL1        0.1122
     13 C          59.2330   94.4830   -0.3898 C.ar    1  UNL1        0.0699
     14 C          59.9622   95.0890    0.7725 C.ar    1  UNL1        0.0190
     15 C          60.1105   94.3170    2.0499 C.ar    1  UNL1        0.0160
     16 C          59.5296   92.9388    2.1651 C.ar    1  UNL1        0.0480
     17 C          58.8004   92.3328    1.0028 C.ar    1  UNL1        0.0160
     18 C          58.6521   93.1048   -0.2746 C.ar    1  UNL1        0.0190
     19 N          58.2539   96.0334   -3.8108 N.ar    1  UNL1       -0.2024
     20 N          59.4591   96.8529   -3.4555 N.ar    1  UNL1       -0.1442
     21 C          59.9725   96.3718   -2.1307 C.ar    1  UNL1        0.2073
     22 N          59.0847   95.2550   -1.6673 N.ar    1  UNL1       -0.2398
     23 C          58.0226   95.0459   -2.7056 C.ar    1  UNL1        0.3522
     24 O          56.9223   94.0281   -2.6489 O.2     1  UNL1       -0.2444
     25 C          57.4256   96.1764   -5.0532 C.3     1  UNL1        0.1099
     26 C          58.0660   96.0343   -6.4021 C.3     1  UNL1        0.0265
     27 C          54.9600   95.3740   -5.2182 C.3     1  UNL1        0.0021
     28 C          55.9568   96.4615   -4.9466 C.3     1  UNL1        0.0245
     29 O          60.5681   87.5345   11.1074 O.3     1  UNL1       -0.4727
     30 C          61.9214   87.0540   11.5404 C.3     1  UNL1        0.2374
     31 C          62.8262   87.9625   12.3189 C.3     1  UNL1        0.1909
     32 C          63.8427   87.5347   13.3356 C.3     1  UNL1        0.1783
     33 O          64.5181   88.7661   13.8625 O.3     1  UNL1       -0.3266
     34 C          63.9190   89.9550   13.1713 C.3     1  UNL1        0.2315
     35 O          62.8734   89.4583   12.2173 O.3     1  UNL1       -0.3254
     36 C          64.8814   90.7342   14.0177 C.ar    1  UNL1        0.0410
     37 C          66.2654   91.0167   13.5130 C.ar    1  UNL1        0.0022
     38 C          67.2279   91.7960   14.3595 C.ar    1  UNL1        0.0113
     39 C          66.8064   92.2927   15.7106 C.ar    1  UNL1        0.0585
     40 CL         67.7688   93.0719   16.5570 Cl      1  UNL1       -0.0822
     41 C          65.4224   92.0102   16.2153 C.ar    1  UNL1        0.0226
     42 C          64.4598   91.2310   15.3689 C.ar    1  UNL1        0.0591
     43 CL         63.0758   90.9485   15.8736 Cl      1  UNL1       -0.0824
     44 C          63.5211   91.3068   12.6571 C.3     1  UNL1        0.1897
     45 N          64.4913   92.1176   11.8500 N.ar    1  UNL1       -0.2246
     46 C          64.9352   91.8221   10.4481 C.ar    1  UNL1        0.1974
     47 N          65.9061   92.8881   10.0348 N.ar    1  UNL1       -0.2007
     48 C          66.0623   93.8425   11.1814 C.ar    1  UNL1        0.2210
     49 N          65.1878   93.3663   12.3033 N.ar    1  UNL1       -0.1450
@<TRIPOS>BOND
     1    27    28    1
     2    28    25    1
     3    25    26    1
     4    25    19    1
     5    19    20   ar
     6    20    21   ar
     7    21    22   ar
     8    22    13    1
     9    13    14   ar
    10    14    15   ar
    11    15    16   ar
    12    16     7    1
    13     7     8    1
    14     8     9    1
    15     9    10    1
    16    10     1    1
    17     1     2   ar
    18     2     3   ar
    19     3     4   ar
    20     4    29    1
    21    29    30    1
    22    31    30    1
    23    31    32    1
    24    32    33    1
    25    33    34    1
    26    34    44    1
    27    44    45    1
    28    45    46   ar
    29    46    47   ar
    30    47    48   ar
    31    48    49   ar
    32    34    36    1
    33    36    37   ar
    34    37    38   ar
    35    38    39   ar
    36    39    40    1
    37    39    41   ar
    38    41    42   ar
    39    42    43    1
    40    34    35    1
    41     4     5   ar
    42     5     6   ar
    43    10    11    1
    44    11    12    1
    45    16    17   ar
    46    17    18   ar
    47    22    23   ar
    48    23    24    2
    49    23    19   ar
    50    18    13   ar
    51    12     7    1
    52     6     1   ar
    53    35    31    1
    54    49    45   ar
    55    42    36   ar
@<TRIPOS>MOLECULE
*****
 49 55 0 0 0
SMALL
GASTEIGER

@<TRIPOS>ATOM
      1 C          60.4054   90.4381    6.7455 C.ar    1  UNL1        0.0481
      2 C          59.5120   89.2977    7.1345 C.ar    1  UNL1        0.0176
      3 C          59.6449   88.6694    8.4901 C.ar    1  UNL1        0.0382
      4 C          60.6713   89.1815    9.4567 C.ar    1  UNL1        0.1388
      5 C          61.5648   90.3219    9.0676 C.ar    1  UNL1        0.0382
      6 C          61.4318   90.9502    7.7121 C.ar    1  UNL1        0.0176
      7 N          60.0065   92.3228    2.6788 N.pl3   1  UNL1       -0.3041
      8 C          58.7945   92.1423    3.5438 C.3     1  UNL1        0.1122
      9 C          58.9274   91.5140    4.8995 C.3     1  UNL1        0.1122
     10 N          60.2724   91.0663    5.3900 N.pl3   1  UNL1       -0.3041
     11 C          61.4845   91.2469    4.5248 C.3     1  UNL1        0.1122
     12 C          61.3515   91.8751    3.1692 C.3     1  UNL1        0.1122
     13 C          59.6076   94.2076   -1.3880 C.ar    1  UNL1        0.0699
     14 C          59.4863   95.0526   -0.1546 C.ar    1  UNL1        0.0190
     15 C          59.6192   94.4243    1.2009 C.ar    1  UNL1        0.0160
     16 C          59.8735   92.9511    1.3231 C.ar    1  UNL1        0.0480
     17 C          59.9949   92.1061    0.0897 C.ar    1  UNL1        0.0160
     18 C          59.8619   92.7344   -1.2658 C.ar    1  UNL1        0.0190
     19 N          58.8793   95.2081   -5.0669 N.ar    1  UNL1       -0.2024
     20 N          59.6610   96.3972   -4.5924 N.ar    1  UNL1       -0.1442
     21 C          60.0289   96.1671   -3.1566 C.ar    1  UNL1        0.2073
     22 N          59.4747   94.8359   -2.7436 N.ar    1  UNL1       -0.2398
     23 C          58.7642   94.2432   -3.9242 C.ar    1  UNL1        0.3522
     24 O          58.0619   92.9182   -3.9566 O.2     1  UNL1       -0.2444
     25 C          58.3123   95.0175   -6.4424 C.3     1  UNL1        0.1099
     26 C          58.7488   93.8511   -7.2785 C.3     1  UNL1        0.0265
     27 C          56.1897   96.4780   -6.1089 C.3     1  UNL1        0.0021
     28 C          57.3089   95.9932   -6.9819 C.3     1  UNL1        0.0245
     29 O          60.8043   88.5533   10.8123 O.3     1  UNL1       -0.4727
     30 C          62.1073   87.9381   11.2292 C.3     1  UNL1        0.2374
     31 C          62.1758   86.4755   11.5552 C.3     1  UNL1        0.1909
     32 C          61.5077   85.3700   10.7928 C.3     1  UNL1        0.1783
     33 O          61.8435   84.0729   11.4672 O.3     1  UNL1       -0.3266
     34 C          62.7192   84.3769   12.6466 C.3     1  UNL1        0.2315
     35 O          62.9246   85.8618   12.7009 O.3     1  UNL1       -0.3254
     36 C          62.6958   82.8906   12.8475 C.ar    1  UNL1        0.0410
     37 C          61.9137   82.2995   13.9828 C.ar    1  UNL1        0.0022
     38 C          61.8903   80.8132   14.1838 C.ar    1  UNL1        0.0113
     39 C          62.6490   79.9180   13.2495 C.ar    1  UNL1        0.0585
     40 CL         62.6256   78.4318   13.4504 Cl      1  UNL1       -0.0822
     41 C          63.4312   80.5091   12.1142 C.ar    1  UNL1        0.0226
     42 C          63.4546   81.9954   11.9132 C.ar    1  UNL1        0.0591
     43 CL         64.2367   82.5865   10.7779 Cl      1  UNL1       -0.0824
     44 C          63.5900   84.3701   13.8679 C.3     1  UNL1        0.1897
     45 N          63.1839   85.1504   15.0829 N.ar    1  UNL1       -0.2246
     46 C          62.0443   84.8223   16.0013 C.ar    1  UNL1        0.1974
     47 N          62.0022   85.8650   17.0788 N.ar    1  UNL1       -0.2007
     48 C          63.1159   86.8376   16.8264 C.ar    1  UNL1        0.2210
     49 N          63.8462   86.3960   15.5928 N.ar    1  UNL1       -0.1450
@<TRIPOS>BOND
     1    27    28    1
     2    28    25    1
     3    25    26    1
     4    25    19    1
     5    19    20   ar
     6    20    21   ar
     7    21    22   ar
     8    22    13    1
     9    13    14   ar
    10    14    15   ar
    11    15    16   ar
    12    16     7    1
    13     7     8    1
    14     8     9    1
    15     9    10    1
    16    10     1    1
    17     1     2   ar
    18     2     3   ar
    19     3     4   ar
    20     4    29    1
    21    29    30    1
    22    31    30    1
    23    31    32    1
    24    32    33    1
    25    33    34    1
    26    34    44    1
    27    44    45    1
    28    45    46   ar
    29    46    47   ar
    30    47    48   ar
    31    48    49   ar
    32    34    36    1
    33    36    37   ar
    34    37    38   ar
    35    38    39   ar
    36    39    40    1
    37    39    41   ar
    38    41    42   ar
    39    42    43    1
    40    34    35    1
    41     4     5   ar
    42     5     6   ar
    43    10    11    1
    44    11    12    1
    45    16    17   ar
    46    17    18   ar
    47    22    23   ar
    48    23    24    2
    49    23    19   ar
    50    18    13   ar
    51    12     7    1
    52     6     1   ar
    53    35    31    1
    54    49    45   ar
    55    42    36   ar
