@<TRIPOS>MOLECULE
*****
 30 33 0 0 0
SMALL
GASTEIGER

@<TRIPOS>ATOM
      1 C          63.5531   90.3374   11.5231 C.3     1  UNL1        0.0983
      2 C          63.5914   91.3662   10.4321 C.3     1  UNL1        0.0280
      3 C          64.4298   92.5994   10.5934 C.3     1  UNL1        0.0452
      4 C          65.2300   92.8039   11.8456 C.ar    1  UNL1        0.0335
      5 C          66.1416   93.9113   12.2847 C.ar    1  UNL1       -0.0035
      6 C          66.6666   93.5669   13.6469 C.ar    1  UNL1        0.0133
      7 C          67.6035   94.2849   14.5725 C.ar    1  UNL1        0.0012
      8 C          67.9532   93.6826   15.9010 C.ar    1  UNL1        0.0001
      9 C          67.3661   92.3624   16.3039 C.ar    1  UNL1        0.0015
     10 C          66.4293   91.6444   15.3783 C.ar    1  UNL1        0.0172
     11 C          66.0795   92.2466   14.0498 C.ar    1  UNL1        0.0594
     12 N          65.1917   91.7751   12.9365 N.ar    1  UNL1       -0.3292
     13 C          64.3532   90.5419   12.7753 C.3     1  UNL1        0.1254
     14 C          61.6190   89.0707   10.3377 C.2     1  UNL1        0.2293
     15 O          61.3620   90.2705    9.4749 O.2     1  UNL1       -0.2745
     16 N          62.7146   89.1041   11.3618 N.am    1  UNL1       -0.2772
     17 C          62.9716   87.9043   12.2246 C.3     1  UNL1        0.1149
     18 C          59.6252   87.5898   11.1005 C.3     1  UNL1        0.0143
     19 C          60.7805   87.8373   10.1765 C.3     1  UNL1        0.0989
     20 C          61.0974   86.8516    9.0912 C.ar    1  UNL1       -0.0137
     21 C          60.0463   86.4755    8.0893 C.ar    1  UNL1       -0.0015
     22 C          60.3633   85.4898    7.0040 C.ar    1  UNL1        0.0293
     23 C          61.7313   84.8801    6.9206 C.ar    1  UNL1        0.1401
     24 F          62.0482   83.8944    5.8353 F       1  UNL1       -0.2042
     25 C          62.7824   85.2563    7.9225 C.ar    1  UNL1        0.0293
     26 C          62.4654   86.2420    9.0077 C.ar    1  UNL1       -0.0015
     27 C          66.4704   95.1462   11.4993 C.3     1  UNL1        0.0691
     28 C          67.0364   95.0264   10.1153 C.2     1  UNL1        0.0548
     29 O          68.1616   94.0720    9.8452 O.co2   1  UNL1       -0.5488
     30 O          66.4772   95.8611    9.0015 O.co2   1  UNL1       -0.5488
@<TRIPOS>UNITY_ATOM_ATTR
29 1
charge -1
@<TRIPOS>BOND
     1    19    18    1
     2    19    14    1
     3    14    15    2
     4    14    16   am
     5    16    17    1
     6     1    16    1
     7     1     2    1
     8     2     3    1
     9     3     4    1
    10     4     5   ar
    11     5    27    1
    12    27    28    1
    13    28    29   ar
    14    28    30   ar
    15     5     6   ar
    16     6     7   ar
    17     7     8   ar
    18     8     9   ar
    19     9    10   ar
    20    10    11   ar
    21    11    12   ar
    22    12    13    1
    23    19    20    1
    24    20    21   ar
    25    21    22   ar
    26    22    23   ar
    27    23    24    1
    28    23    25   ar
    29    25    26   ar
    30    13     1    1
    31    26    20   ar
    32    12     4   ar
    33    11     6   ar
@<TRIPOS>MOLECULE
*****
 30 33 0 0 0
SMALL
GASTEIGER

@<TRIPOS>ATOM
      1 C          63.4077   90.6160   10.9805 C.3     1  UNL1        0.0983
      2 C          63.5851   91.7036    9.9628 C.3     1  UNL1        0.0280
      3 C          64.4676   92.8780   10.2662 C.3     1  UNL1        0.0452
      4 C          65.1726   92.9648   11.5874 C.ar    1  UNL1        0.0335
      5 C          66.0991   93.9933   12.1650 C.ar    1  UNL1       -0.0035
      6 C          66.4943   93.5415   13.5396 C.ar    1  UNL1        0.0133
      7 C          67.3873   94.1519   14.5788 C.ar    1  UNL1        0.0012
      8 C          67.5980   93.4545   15.8899 C.ar    1  UNL1        0.0001
      9 C          66.9157   92.1467   16.1619 C.ar    1  UNL1        0.0015
     10 C          66.0228   91.5362   15.1228 C.ar    1  UNL1        0.0172
     11 C          65.8121   92.2336   13.8116 C.ar    1  UNL1        0.0594
     12 N          64.9952   91.8772   12.6051 N.ar    1  UNL1       -0.3292
     13 C          64.1128   90.7028   12.3016 C.3     1  UNL1        0.1254
     14 C          62.6123   88.2015   11.5164 C.2     1  UNL1        0.2293
     15 O          63.5817   88.1357   12.6592 O.2     1  UNL1       -0.2745
     16 N          62.5252   89.4416   10.6770 N.am    1  UNL1       -0.2772
     17 C          61.5558   89.5073    9.5343 C.3     1  UNL1        0.1149
     18 C          60.2407   87.2007   11.1641 C.3     1  UNL1        0.0143
     19 C          61.7298   87.0270   11.2130 C.3     1  UNL1        0.0989
     20 C          62.3365   85.6790   10.9585 C.ar    1  UNL1       -0.0137
     21 C          62.4716   84.6933   12.0811 C.ar    1  UNL1       -0.0015
     22 C          63.0782   83.3453   11.8265 C.ar    1  UNL1        0.0293
     23 C          63.5498   82.9830   10.4494 C.ar    1  UNL1        0.1401
     24 F          64.1565   81.6349   10.1948 F       1  UNL1       -0.2042
     25 C          63.4147   83.9687    9.3269 C.ar    1  UNL1        0.0293
     26 C          62.8080   85.3167    9.5814 C.ar    1  UNL1       -0.0015
     27 C          66.5511   95.2527   11.4870 C.3     1  UNL1        0.0691
     28 C          67.0766   95.2015   10.0829 C.2     1  UNL1        0.0548
     29 O          66.5066   96.1110    9.0351 O.co2   1  UNL1       -0.5488
     30 O          68.1722   94.2409    9.7267 O.co2   1  UNL1       -0.5488
@<TRIPOS>UNITY_ATOM_ATTR
29 1
charge -1
@<TRIPOS>BOND
     1    19    18    1
     2    19    14    1
     3    14    15    2
     4    14    16   am
     5    16    17    1
     6     1    16    1
     7     1     2    1
     8     2     3    1
     9     3     4    1
    10     4     5   ar
    11     5    27    1
    12    27    28    1
    13    28    29   ar
    14    28    30   ar
    15     5     6   ar
    16     6     7   ar
    17     7     8   ar
    18     8     9   ar
    19     9    10   ar
    20    10    11   ar
    21    11    12   ar
    22    12    13    1
    23    19    20    1
    24    20    21   ar
    25    21    22   ar
    26    22    23   ar
    27    23    24    1
    28    23    25   ar
    29    25    26   ar
    30    13     1    1
    31    26    20   ar
    32    12     4   ar
    33    11     6   ar
@<TRIPOS>MOLECULE
*****
 30 33 0 0 0
SMALL
GASTEIGER

@<TRIPOS>ATOM
      1 C          63.6684   89.2210   12.6810 C.3     1  UNL1        0.0983
      2 C          64.1538   89.1434   14.0981 C.3     1  UNL1        0.0280
      3 C          64.9526   90.2717   14.6801 C.3     1  UNL1        0.0452
      4 C          65.2660   91.4777   13.8450 C.ar    1  UNL1        0.0335
      5 C          66.0268   92.7354   14.1439 C.ar    1  UNL1       -0.0035
      6 C          66.0115   93.5904   12.9115 C.ar    1  UNL1        0.0133
      7 C          66.5994   94.9388   12.6180 C.ar    1  UNL1        0.0012
      8 C          66.4172   95.5578   11.2640 C.ar    1  UNL1        0.0001
      9 C          65.6470   94.8285   10.2034 C.ar    1  UNL1        0.0015
     10 C          65.0591   93.4801   10.4968 C.ar    1  UNL1        0.0172
     11 C          65.2414   92.8610   11.8509 C.ar    1  UNL1        0.0594
     12 N          64.7806   91.5553   12.4278 N.ar    1  UNL1       -0.3292
     13 C          63.9818   90.4270   11.8458 C.3     1  UNL1        0.1254
     14 C          63.1155   86.6855   12.5565 C.2     1  UNL1        0.2293
     15 O          64.1603   86.4066   13.5960 O.2     1  UNL1       -0.2745
     16 N          62.8695   88.0927   12.0989 N.am    1  UNL1       -0.2772
     17 C          61.8247   88.3716   11.0594 C.3     1  UNL1        0.1149
     18 C          61.3633   85.8172   10.8458 C.3     1  UNL1        0.0143
     19 C          62.3166   85.5572   11.9744 C.3     1  UNL1        0.0989
     20 C          62.4711   84.1688   12.5209 C.ar    1  UNL1       -0.0137
     21 C          62.7991   83.0320   11.5989 C.ar    1  UNL1       -0.0015
     22 C          62.9536   81.6438   12.1454 C.ar    1  UNL1        0.0293
     23 C          62.7799   81.3922   13.6139 C.ar    1  UNL1        0.1401
     24 F          62.9344   80.0039   14.1605 F       1  UNL1       -0.2042
     25 C          62.4518   82.5290   14.5360 C.ar    1  UNL1        0.0293
     26 C          62.2974   83.9173   13.9894 C.ar    1  UNL1       -0.0015
     27 C          66.6869   93.0781   15.4465 C.3     1  UNL1        0.0691
     28 C          68.1542   93.3875   15.4852 C.2     1  UNL1        0.0548
     29 O          69.1051   92.6236   14.6122 O.co2   1  UNL1       -0.5488
     30 O          68.6705   94.4610   16.3969 O.co2   1  UNL1       -0.5488
@<TRIPOS>UNITY_ATOM_ATTR
29 1
charge -1
@<TRIPOS>BOND
     1    19    18    1
     2    19    14    1
     3    14    15    2
     4    14    16   am
     5    16    17    1
     6     1    16    1
     7     1     2    1
     8     2     3    1
     9     3     4    1
    10     4     5   ar
    11     5    27    1
    12    27    28    1
    13    28    29   ar
    14    28    30   ar
    15     5     6   ar
    16     6     7   ar
    17     7     8   ar
    18     8     9   ar
    19     9    10   ar
    20    10    11   ar
    21    11    12   ar
    22    12    13    1
    23    19    20    1
    24    20    21   ar
    25    21    22   ar
    26    22    23   ar
    27    23    24    1
    28    23    25   ar
    29    25    26   ar
    30    13     1    1
    31    26    20   ar
    32    12     4   ar
    33    11     6   ar
@<TRIPOS>MOLECULE
*****
 30 33 0 0 0
SMALL
GASTEIGER

@<TRIPOS>ATOM
      1 C          63.3699   89.2655   12.3401 C.3     1  UNL1        0.0983
      2 C          63.8908   89.0424   13.7289 C.3     1  UNL1        0.0280
      3 C          64.7832   90.0646   14.3684 C.3     1  UNL1        0.0452
      4 C          65.1546   91.3097   13.6190 C.ar    1  UNL1        0.0335
      5 C          66.0096   92.4858   13.9878 C.ar    1  UNL1       -0.0035
      6 C          66.0171   93.4356   12.8268 C.ar    1  UNL1        0.0133
      7 C          66.6883   94.7608   12.6186 C.ar    1  UNL1        0.0012
      8 C          66.5092   95.4969   11.3240 C.ar    1  UNL1        0.0001
      9 C          65.6589   94.9079   10.2377 C.ar    1  UNL1        0.0015
     10 C          64.9876   93.5828   10.4460 C.ar    1  UNL1        0.0172
     11 C          65.1667   92.8466   11.7406 C.ar    1  UNL1        0.0594
     12 N          64.6337   91.5328   12.2301 N.ar    1  UNL1       -0.3292
     13 C          63.7414   90.5107   11.5907 C.3     1  UNL1        0.1254
     14 C          61.5726   88.6392   10.5716 C.2     1  UNL1        0.2293
     15 O          61.5600   90.0570   10.0822 O.2     1  UNL1       -0.2745
     16 N          62.4775   88.2433   11.7006 N.am    1  UNL1       -0.2772
     17 C          62.4901   86.8255   12.1900 C.3     1  UNL1        0.1149
     18 C          59.2365   87.5280   10.3297 C.3     1  UNL1        0.0143
     19 C          60.6802   87.6170    9.9321 C.3     1  UNL1        0.0989
     20 C          61.2314   86.6839    8.8951 C.ar    1  UNL1       -0.0137
     21 C          62.6544   86.2183    8.9855 C.ar    1  UNL1       -0.0015
     22 C          63.2056   85.2853    7.9485 C.ar    1  UNL1        0.0293
     23 C          62.3337   84.8178    6.8209 C.ar    1  UNL1        0.1401
     24 F          62.8849   83.8847    5.7838 F       1  UNL1       -0.2042
     25 C          60.9107   85.2834    6.7305 C.ar    1  UNL1        0.0293
     26 C          60.3595   86.2165    7.7675 C.ar    1  UNL1       -0.0015
     27 C          66.7305   92.6782   15.2890 C.3     1  UNL1        0.0691
     28 C          68.1425   93.1846   15.2965 C.2     1  UNL1        0.0548
     29 O          68.5404   94.2829   16.2374 O.co2   1  UNL1       -0.5488
     30 O          69.1564   92.5927   14.3629 O.co2   1  UNL1       -0.5488
@<TRIPOS>UNITY_ATOM_ATTR
29 1
charge -1
@<TRIPOS>BOND
     1    19    18    1
     2    19    14    1
     3    14    15    2
     4    14    16   am
     5    16    17    1
     6     1    16    1
     7     1     2    1
     8     2     3    1
     9     3     4    1
    10     4     5   ar
    11     5    27    1
    12    27    28    1
    13    28    29   ar
    14    28    30   ar
    15     5     6   ar
    16     6     7   ar
    17     7     8   ar
    18     8     9   ar
    19     9    10   ar
    20    10    11   ar
    21    11    12   ar
    22    12    13    1
    23    19    20    1
    24    20    21   ar
    25    21    22   ar
    26    22    23   ar
    27    23    24    1
    28    23    25   ar
    29    25    26   ar
    30    13     1    1
    31    26    20   ar
    32    12     4   ar
    33    11     6   ar
@<TRIPOS>MOLECULE
*****
 30 33 0 0 0
SMALL
GASTEIGER

@<TRIPOS>ATOM
      1 C          63.3734   89.4817   12.5240 C.3     1  UNL1        0.0983
      2 C          62.5541   89.8013   11.3088 C.3     1  UNL1        0.0280
      3 C          61.9683   88.6921   10.4863 C.3     1  UNL1        0.0452
      4 C          62.2018   87.2633   10.8790 C.ar    1  UNL1        0.0335
      5 C          61.7552   85.9685   10.2674 C.ar    1  UNL1       -0.0035
      6 C          62.2983   84.8487   11.1047 C.ar    1  UNL1        0.0133
      7 C          62.1816   83.3581   10.9849 C.ar    1  UNL1        0.0012
      8 C          62.8473   82.4702   11.9941 C.ar    1  UNL1        0.0001
      9 C          63.6296   83.0729   13.1231 C.ar    1  UNL1        0.0015
     10 C          63.7463   84.5635   13.2429 C.ar    1  UNL1        0.0172
     11 C          63.0807   85.4514   12.2337 C.ar    1  UNL1        0.0594
     12 N          63.0210   86.9437   12.0942 N.ar    1  UNL1       -0.3292
     13 C          63.6068   88.0529   12.9167 C.3     1  UNL1        0.1254
     14 C          64.2321   90.3784   14.8062 C.2     1  UNL1        0.2293
     15 O          63.9192   89.0570   15.4432 O.2     1  UNL1       -0.2745
     16 N          63.9592   90.5909   13.3466 N.am    1  UNL1       -0.2772
     17 C          64.2721   91.9123   12.7096 C.3     1  UNL1        0.1149
     18 C          63.9951   92.1438   16.6976 C.3     1  UNL1        0.0143
     19 C          64.8180   91.4876   15.6288 C.3     1  UNL1        0.0989
     20 C          66.2266   91.9406   15.3825 C.ar    1  UNL1       -0.0137
     21 C          66.8380   92.9971   16.2543 C.ar    1  UNL1       -0.0015
     22 C          68.2465   93.4500   16.0080 C.ar    1  UNL1        0.0293
     23 C          69.0437   92.8464   14.8899 C.ar    1  UNL1        0.1401
     24 F          70.4524   93.2994   14.6436 F       1  UNL1       -0.2042
     25 C          68.4323   91.7899   14.0181 C.ar    1  UNL1        0.0293
     26 C          67.0238   91.3370   14.2644 C.ar    1  UNL1       -0.0015
     27 C          60.9131   85.8196    9.0350 C.3     1  UNL1        0.0691
     28 C          61.5247   85.3017    7.7669 C.2     1  UNL1        0.0548
     29 O          60.6545   85.0019    6.5825 O.co2   1  UNL1       -0.5488
     30 O          63.0064   85.0836    7.6833 O.co2   1  UNL1       -0.5488
@<TRIPOS>UNITY_ATOM_ATTR
29 1
charge -1
@<TRIPOS>BOND
     1    19    18    1
     2    19    14    1
     3    14    15    2
     4    14    16   am
     5    16    17    1
     6     1    16    1
     7     1     2    1
     8     2     3    1
     9     3     4    1
    10     4     5   ar
    11     5    27    1
    12    27    28    1
    13    28    29   ar
    14    28    30   ar
    15     5     6   ar
    16     6     7   ar
    17     7     8   ar
    18     8     9   ar
    19     9    10   ar
    20    10    11   ar
    21    11    12   ar
    22    12    13    1
    23    19    20    1
    24    20    21   ar
    25    21    22   ar
    26    22    23   ar
    27    23    24    1
    28    23    25   ar
    29    25    26   ar
    30    13     1    1
    31    26    20   ar
    32    12     4   ar
    33    11     6   ar
@<TRIPOS>MOLECULE
*****
 30 33 0 0 0
SMALL
GASTEIGER

@<TRIPOS>ATOM
      1 C          63.6407   90.1915   12.1656 C.3     1  UNL1        0.0983
      2 C          62.6847   90.4311   11.0349 C.3     1  UNL1        0.0280
      3 C          61.9241   89.2833   10.4399 C.3     1  UNL1        0.0452
      4 C          62.1195   87.8959   10.9756 C.ar    1  UNL1        0.0335
      5 C          61.5137   86.5779   10.5937 C.ar    1  UNL1       -0.0035
      6 C          62.0953   85.5238   11.4884 C.ar    1  UNL1        0.0133
      7 C          61.8707   84.0431   11.5725 C.ar    1  UNL1        0.0012
      8 C          62.6113   83.2289   12.5916 C.ar    1  UNL1        0.0001
      9 C          63.5766   83.8954   13.5265 C.ar    1  UNL1        0.0015
     10 C          63.8012   85.3761   13.4424 C.ar    1  UNL1        0.0172
     11 C          63.0606   86.1902   12.4233 C.ar    1  UNL1        0.0594
     12 N          63.0755   87.6563   12.1064 N.ar    1  UNL1       -0.3292
     13 C          63.8361   88.8041   12.7014 C.3     1  UNL1        0.1254
     14 C          65.2701   92.1960   11.8881 C.2     1  UNL1        0.2293
     15 O          65.3782   91.9050   10.4206 O.2     1  UNL1       -0.2745
     16 N          64.4014   91.3393   12.7607 N.am    1  UNL1       -0.2772
     17 C          64.2933   91.6303   14.2282 C.3     1  UNL1        0.1149
     18 C          65.8328   94.7317   11.9498 C.3     1  UNL1        0.0143
     19 C          66.0308   93.3438   12.4832 C.3     1  UNL1        0.0989
     20 C          66.9895   93.1036   13.6115 C.ar    1  UNL1       -0.0137
     21 C          66.8684   93.8952   14.8799 C.ar    1  UNL1       -0.0015
     22 C          67.8271   93.6550   16.0082 C.ar    1  UNL1        0.0293
     23 C          68.9069   92.6233   15.8682 C.ar    1  UNL1        0.1401
     24 F          69.8656   92.3831   16.9966 F       1  UNL1       -0.2042
     25 C          69.0279   91.8317   14.5998 C.ar    1  UNL1        0.0293
     26 C          68.0692   92.0719   13.4716 C.ar    1  UNL1       -0.0015
     27 C          60.5036   86.3535    9.5077 C.3     1  UNL1        0.0691
     28 C          60.9379   85.8030    8.1816 C.2     1  UNL1        0.0548
     29 O          62.3831   85.4824    7.9396 O.co2   1  UNL1       -0.5488
     30 O          59.9270   85.5733    7.0975 O.co2   1  UNL1       -0.5488
@<TRIPOS>UNITY_ATOM_ATTR
29 1
charge -1
@<TRIPOS>BOND
     1    19    18    1
     2    19    14    1
     3    14    15    2
     4    14    16   am
     5    16    17    1
     6     1    16    1
     7     1     2    1
     8     2     3    1
     9     3     4    1
    10     4     5   ar
    11     5    27    1
    12    27    28    1
    13    28    29   ar
    14    28    30   ar
    15     5     6   ar
    16     6     7   ar
    17     7     8   ar
    18     8     9   ar
    19     9    10   ar
    20    10    11   ar
    21    11    12   ar
    22    12    13    1
    23    19    20    1
    24    20    21   ar
    25    21    22   ar
    26    22    23   ar
    27    23    24    1
    28    23    25   ar
    29    25    26   ar
    30    13     1    1
    31    26    20   ar
    32    12     4   ar
    33    11     6   ar
@<TRIPOS>MOLECULE
*****
 30 33 0 0 0
SMALL
GASTEIGER

@<TRIPOS>ATOM
      1 C          63.1933   88.3793   12.1863 C.3     1  UNL1        0.0983
      2 C          62.9218   89.0559   10.8754 C.3     1  UNL1        0.0280
      3 C          63.4753   90.4243   10.6090 C.3     1  UNL1        0.0452
      4 C          64.3003   91.1161   11.6534 C.ar    1  UNL1        0.0335
      5 C          64.9733   92.4565   11.6755 C.ar    1  UNL1       -0.0035
      6 C          65.6608   92.6083   13.0000 C.ar    1  UNL1        0.0133
      7 C          66.4806   93.7205   13.5837 C.ar    1  UNL1        0.0012
      8 C          67.0523   93.5861   14.9639 C.ar    1  UNL1        0.0001
      9 C          66.8042   92.3396   15.7605 C.ar    1  UNL1        0.0015
     10 C          65.9843   91.2273   15.1768 C.ar    1  UNL1        0.0172
     11 C          65.4126   91.3617   13.7966 C.ar    1  UNL1        0.0594
     12 N          64.5718   90.4395   12.9643 N.ar    1  UNL1       -0.3292
     13 C          64.0183   89.0711   13.2308 C.3     1  UNL1        0.1254
     14 C          63.3381   86.0932   13.4122 C.2     1  UNL1        0.2293
     15 O          64.5899   86.5439   14.1049 O.2     1  UNL1       -0.2745
     16 N          62.6398   87.0108   12.4529 N.am    1  UNL1       -0.2772
     17 C          61.3880   86.5601   11.7602 C.3     1  UNL1        0.1149
     18 C          62.0387   84.4521   14.9512 C.3     1  UNL1        0.0143
     19 C          62.7846   84.7247   13.6787 C.3     1  UNL1        0.0989
     20 C          62.9771   83.6288   12.6727 C.ar    1  UNL1       -0.0137
     21 C          63.7072   83.9060   11.3920 C.ar    1  UNL1       -0.0015
     22 C          63.8996   82.8101   10.3861 C.ar    1  UNL1        0.0293
     23 C          63.3619   81.4370   10.6608 C.ar    1  UNL1        0.1401
     24 F          63.5544   80.3411    9.6548 F       1  UNL1       -0.2042
     25 C          62.6318   81.1598   11.9415 C.ar    1  UNL1        0.0293
     26 C          62.4394   82.2557   12.9474 C.ar    1  UNL1       -0.0015
     27 C          64.9611   93.4676   10.5676 C.3     1  UNL1        0.0691
     28 C          66.2387   94.1273   10.1400 C.2     1  UNL1        0.0548
     29 O          67.5295   93.3647   10.1891 O.co2   1  UNL1       -0.5488
     30 O          66.2254   95.5495    9.6635 O.co2   1  UNL1       -0.5488
@<TRIPOS>UNITY_ATOM_ATTR
29 1
charge -1
@<TRIPOS>BOND
     1    19    18    1
     2    19    14    1
     3    14    15    2
     4    14    16   am
     5    16    17    1
     6     1    16    1
     7     1     2    1
     8     2     3    1
     9     3     4    1
    10     4     5   ar
    11     5    27    1
    12    27    28    1
    13    28    29   ar
    14    28    30   ar
    15     5     6   ar
    16     6     7   ar
    17     7     8   ar
    18     8     9   ar
    19     9    10   ar
    20    10    11   ar
    21    11    12   ar
    22    12    13    1
    23    19    20    1
    24    20    21   ar
    25    21    22   ar
    26    22    23   ar
    27    23    24    1
    28    23    25   ar
    29    25    26   ar
    30    13     1    1
    31    26    20   ar
    32    12     4   ar
    33    11     6   ar
@<TRIPOS>MOLECULE
*****
 30 33 0 0 0
SMALL
GASTEIGER

@<TRIPOS>ATOM
      1 C          61.7589   88.0236   10.1382 C.3     1  UNL1        0.0983
      2 C          62.1813   89.3731   10.6385 C.3     1  UNL1        0.0280
      3 C          62.9627   89.4894   11.9135 C.3     1  UNL1        0.0452
      4 C          63.3217   88.2561   12.6884 C.ar    1  UNL1        0.0335
      5 C          64.0783   88.0598   13.9685 C.ar    1  UNL1       -0.0035
      6 C          64.1235   86.5890   14.2595 C.ar    1  UNL1        0.0133
      7 C          64.7341   85.8066   15.3842 C.ar    1  UNL1        0.0012
      8 C          64.6159   84.3115   15.4085 C.ar    1  UNL1        0.0001
      9 C          63.8871   83.5988   14.3082 C.ar    1  UNL1        0.0015
     10 C          63.2765   84.3812   13.1834 C.ar    1  UNL1        0.0172
     11 C          63.3947   85.8763   13.1591 C.ar    1  UNL1        0.0594
     12 N          62.8992   86.9066   12.1881 N.ar    1  UNL1       -0.3292
     13 C          62.1178   86.7903   10.9130 C.3     1  UNL1        0.1254
     14 C          60.0607   89.0171    8.4414 C.2     1  UNL1        0.2293
     15 O          59.9254   90.2433    9.2948 O.2     1  UNL1       -0.2745
     16 N          60.9774   87.9072    8.8630 N.am    1  UNL1       -0.2772
     17 C          61.1127   86.6811    8.0097 C.3     1  UNL1        0.1149
     18 C          58.4371   87.6861    6.9109 C.3     1  UNL1        0.0143
     19 C          59.2793   88.9008    7.1662 C.3     1  UNL1        0.0989
     20 C          59.3400   89.9992    6.1465 C.ar    1  UNL1       -0.0137
     21 C          60.6587   90.4024    5.5562 C.ar    1  UNL1       -0.0015
     22 C          60.7193   91.5008    4.5365 C.ar    1  UNL1        0.0293
     23 C          59.4614   92.1959    4.1071 C.ar    1  UNL1        0.1401
     24 F          59.5221   93.2944    3.0874 F       1  UNL1       -0.2042
     25 C          58.1427   91.7927    4.6975 C.ar    1  UNL1        0.0293
     26 C          58.0821   90.6943    5.7172 C.ar    1  UNL1       -0.0015
     27 C          64.6836   89.1440   14.8101 C.3     1  UNL1        0.0691
     28 C          63.7982   90.1254   15.5195 C.2     1  UNL1        0.0548
     29 O          62.4054   89.7310   15.9126 O.co2   1  UNL1       -0.5488
     30 O          64.3057   91.5010   15.8357 O.co2   1  UNL1       -0.5488
@<TRIPOS>UNITY_ATOM_ATTR
29 1
charge -1
@<TRIPOS>BOND
     1    19    18    1
     2    19    14    1
     3    14    15    2
     4    14    16   am
     5    16    17    1
     6     1    16    1
     7     1     2    1
     8     2     3    1
     9     3     4    1
    10     4     5   ar
    11     5    27    1
    12    27    28    1
    13    28    29   ar
    14    28    30   ar
    15     5     6   ar
    16     6     7   ar
    17     7     8   ar
    18     8     9   ar
    19     9    10   ar
    20    10    11   ar
    21    11    12   ar
    22    12    13    1
    23    19    20    1
    24    20    21   ar
    25    21    22   ar
    26    22    23   ar
    27    23    24    1
    28    23    25   ar
    29    25    26   ar
    30    13     1    1
    31    26    20   ar
    32    12     4   ar
    33    11     6   ar
@<TRIPOS>MOLECULE
*****
 30 33 0 0 0
SMALL
GASTEIGER

@<TRIPOS>ATOM
      1 C          63.9144   89.3883   12.8496 C.3     1  UNL1        0.0983
      2 C          64.4201   89.3908   14.2618 C.3     1  UNL1        0.0280
      3 C          65.1871   90.5704   14.7816 C.3     1  UNL1        0.0452
      4 C          65.4484   91.7475   13.8893 C.ar    1  UNL1        0.0335
      5 C          66.1693   93.0423   14.1211 C.ar    1  UNL1       -0.0035
      6 C          66.1091   93.8400   12.8522 C.ar    1  UNL1        0.0133
      7 C          66.6467   95.1929   12.4907 C.ar    1  UNL1        0.0012
      8 C          66.4261   95.7439   11.1132 C.ar    1  UNL1        0.0001
      9 C          65.6680   94.9421   10.0971 C.ar    1  UNL1        0.0015
     10 C          65.1304   93.5893   10.4586 C.ar    1  UNL1        0.0172
     11 C          65.3510   93.0382   11.8361 C.ar    1  UNL1        0.0594
     12 N          64.9427   91.7450   12.4771 N.ar    1  UNL1       -0.3292
     13 C          64.1756   90.5654   11.9573 C.3     1  UNL1        0.1254
     14 C          62.3318   88.3373   11.0774 C.2     1  UNL1        0.2293
     15 O          62.2832   89.6454   10.3449 O.2     1  UNL1       -0.2745
     16 N          63.1473   88.2087   12.3297 N.am    1  UNL1       -0.2772
     17 C          63.1959   86.9006   13.0622 C.3     1  UNL1        0.1149
     18 C          60.1186   87.3071   10.1882 C.3     1  UNL1        0.0143
     19 C          61.5647   87.1577   10.5575 C.3     1  UNL1        0.0989
     20 C          62.2438   85.8287   10.4069 C.ar    1  UNL1       -0.0137
     21 C          62.2274   84.8454   11.5396 C.ar    1  UNL1       -0.0015
     22 C          62.9065   83.5166   11.3890 C.ar    1  UNL1        0.0293
     23 C          63.6020   83.1709   10.1058 C.ar    1  UNL1        0.1401
     24 F          64.2812   81.8418    9.9551 F       1  UNL1       -0.2042
     25 C          63.6184   84.1541    8.9731 C.ar    1  UNL1        0.0293
     26 C          62.9393   85.4830    9.1237 C.ar    1  UNL1       -0.0015
     27 C          66.8337   93.4652   15.3977 C.3     1  UNL1        0.0691
     28 C          68.3273   93.5895   15.4604 C.2     1  UNL1        0.0548
     29 O          69.1897   92.7097   14.6046 O.co2   1  UNL1       -0.5488
     30 O          68.9585   94.5935   16.3788 O.co2   1  UNL1       -0.5488
@<TRIPOS>UNITY_ATOM_ATTR
29 1
charge -1
@<TRIPOS>BOND
     1    19    18    1
     2    19    14    1
     3    14    15    2
     4    14    16   am
     5    16    17    1
     6     1    16    1
     7     1     2    1
     8     2     3    1
     9     3     4    1
    10     4     5   ar
    11     5    27    1
    12    27    28    1
    13    28    29   ar
    14    28    30   ar
    15     5     6   ar
    16     6     7   ar
    17     7     8   ar
    18     8     9   ar
    19     9    10   ar
    20    10    11   ar
    21    11    12   ar
    22    12    13    1
    23    19    20    1
    24    20    21   ar
    25    21    22   ar
    26    22    23   ar
    27    23    24    1
    28    23    25   ar
    29    25    26   ar
    30    13     1    1
    31    26    20   ar
    32    12     4   ar
    33    11     6   ar
