@<TRIPOS>MOLECULE
*****
 28 31 0 0 0
SMALL
GASTEIGER

@<TRIPOS>ATOM
      1 C          61.0528   88.5542    9.1079 C.ar    1  UNL1        0.0504
      2 C          60.7337   87.1020    8.9102 C.ar    1  UNL1        0.0160
      3 C          61.2313   86.0843    9.8934 C.ar    1  UNL1        0.0196
      4 C          62.0480   86.5188   11.0741 C.ar    1  UNL1        0.1057
      5 C          62.3670   87.9710   11.2718 C.ar    1  UNL1        0.0196
      6 C          61.8694   88.9888   10.2887 C.ar    1  UNL1        0.0160
      7 O          59.0206   87.7766    7.0426 O.2     1  UNL1       -0.2748
      8 C          59.5391   89.1832    7.0921 C.2     1  UNL1        0.2260
      9 N          60.5552   89.5721    8.1247 N.am    1  UNL1       -0.2839
     10 H          60.8955   90.4953    8.1572 H       1  UNL1        0.1549
     11 C          59.0415   90.2010    6.1090 C.3     1  UNL1        0.0812
     12 C          57.9155   91.0038    5.5280 C.3     1  UNL1        0.0143
     13 C          59.3057   91.1611    4.9871 C.3     1  UNL1        0.0330
     14 C          60.2608   91.8061    4.0272 C.ar    1  UNL1       -0.0029
     15 C          61.6828   91.3345    3.9533 C.ar    1  UNL1       -0.0011
     16 C          62.6380   91.9796    2.9933 C.ar    1  UNL1        0.0204
     17 C          62.1712   93.0963    2.1073 C.ar    1  UNL1        0.0989
     18 N          60.7492   93.5679    2.1812 N.ar    1  UNL1       -0.2426
     19 C          59.7940   92.9228    3.1412 C.ar    1  UNL1        0.0946
     20 S          62.5456   85.5010   12.0573 S.O2    1  UNL1        0.0072
     21 O          63.1190   86.5987   12.9034 O.2     1  UNL1       -0.1687
     22 O          61.9721   84.4032   11.2112 O.2     1  UNL1       -0.1687
     23 C          63.0431   84.4832   13.0404 C.3     1  UNL1        0.1388
     24 C          62.8330   83.0214   12.7778 C.3     1  UNL1        0.0561
     25 C          63.3306   82.0037   13.7609 C.3     1  UNL1        0.1439
     26 O          64.0383   82.4477   15.0067 O.3     1  UNL1       -0.3537
     27 C          64.2484   83.9095   15.2694 C.3     1  UNL1        0.1439
     28 C          63.7508   84.9273   14.2862 C.3     1  UNL1        0.0561
@<TRIPOS>BOND
     1     7     8    2
     2     8     9   am
     3     9     1    1
     4     1     2   ar
     5     2     3   ar
     6     3     4   ar
     7     4    20    1
     8    20    21    2
     9    20    22    2
    10    20    23    1
    11    23    24    1
    12    24    25    1
    13    25    26    1
    14    26    27    1
    15    27    28    1
    16     4     5   ar
    17     5     6   ar
    18    11     8    1
    19    11    12    1
    20    12    13    1
    21    13    14    1
    22    14    15   ar
    23    15    16   ar
    24    16    17   ar
    25    17    18   ar
    26    18    19   ar
    27     6     1   ar
    28    13    11    1
    29    19    14   ar
    30    28    23    1
    31     9    10    1
@<TRIPOS>MOLECULE
*****
 28 31 0 0 0
SMALL
GASTEIGER

@<TRIPOS>ATOM
      1 C          61.0461   88.5380    9.1102 C.ar    1  UNL1        0.0504
      2 C          60.7281   87.0855    8.9123 C.ar    1  UNL1        0.0160
      3 C          61.2279   86.0678    9.8942 C.ar    1  UNL1        0.0196
      4 C          62.0457   86.5025   11.0742 C.ar    1  UNL1        0.1057
      5 C          62.3637   87.9549   11.2721 C.ar    1  UNL1        0.0196
      6 C          61.8639   88.9727   10.2901 C.ar    1  UNL1        0.0160
      7 O          59.0103   87.7600    7.0486 O.2     1  UNL1       -0.2748
      8 C          59.5285   89.1668    7.0974 C.2     1  UNL1        0.2260
      9 N          60.5463   89.5558    8.1282 N.am    1  UNL1       -0.2839
     10 H          60.8864   90.4792    8.1602 H       1  UNL1        0.1549
     11 C          59.0287   90.1847    6.1154 C.3     1  UNL1        0.0812
     12 C          57.9009   90.9855    5.5352 C.3     1  UNL1        0.0143
     13 C          59.2908   91.1467    4.9947 C.3     1  UNL1        0.0330
     14 C          60.2447   91.7951    4.0358 C.ar    1  UNL1       -0.0029
     15 C          61.6699   91.3325    3.9674 C.ar    1  UNL1       -0.0011
     16 C          62.6238   91.9809    3.0085 C.ar    1  UNL1        0.0204
     17 C          62.1524   93.0920    2.1177 C.ar    1  UNL1        0.0989
     18 N          60.7271   93.5546    2.1860 N.ar    1  UNL1       -0.2426
     19 C          59.7733   92.9061    3.1451 C.ar    1  UNL1        0.0946
     20 S          62.5455   85.4846   12.0562 S.O2    1  UNL1        0.0072
     21 O          61.9744   84.3866   11.2087 O.2     1  UNL1       -0.1687
     22 O          63.1165   86.5826   12.9037 O.2     1  UNL1       -0.1687
     23 C          63.0452   84.4668   13.0381 C.3     1  UNL1        0.1388
     24 C          63.7375   84.9114   14.2924 C.3     1  UNL1        0.0561
     25 C          64.2373   83.8936   15.2743 C.3     1  UNL1        0.1439
     26 O          64.0447   82.4311   15.0021 O.3     1  UNL1       -0.3537
     27 C          63.3524   81.9865   13.7479 C.3     1  UNL1        0.1439
     28 C          62.8526   83.0043   12.7659 C.3     1  UNL1        0.0561
@<TRIPOS>BOND
     1     7     8    2
     2     8     9   am
     3     9     1    1
     4     1     2   ar
     5     2     3   ar
     6     3     4   ar
     7     4    20    1
     8    20    21    2
     9    20    22    2
    10    20    23    1
    11    23    24    1
    12    24    25    1
    13    25    26    1
    14    26    27    1
    15    27    28    1
    16     4     5   ar
    17     5     6   ar
    18    11     8    1
    19    11    12    1
    20    12    13    1
    21    13    14    1
    22    14    15   ar
    23    15    16   ar
    24    16    17   ar
    25    17    18   ar
    26    18    19   ar
    27     6     1   ar
    28    13    11    1
    29    19    14   ar
    30    28    23    1
    31     9    10    1
@<TRIPOS>MOLECULE
*****
 28 31 0 0 0
SMALL
GASTEIGER

@<TRIPOS>ATOM
      1 C          59.6783   88.5561    7.6807 C.ar    1  UNL1        0.0504
      2 C          60.4274   89.0930    8.8642 C.ar    1  UNL1        0.0160
      3 C          61.1763   88.1568    9.7655 C.ar    1  UNL1        0.0196
      4 C          61.1763   86.6835    9.4833 C.ar    1  UNL1        0.1057
      5 C          60.4273   86.1466    8.2999 C.ar    1  UNL1        0.0196
      6 C          59.6783   87.0829    7.3986 C.ar    1  UNL1        0.0160
      7 O          61.1665   90.2224    5.6785 O.2     1  UNL1       -0.2748
      8 C          59.6734   90.3255    5.7782 C.2     1  UNL1        0.2260
      9 N          58.9293   89.4924    6.7793 N.am    1  UNL1       -0.2839
     10 H          57.9493   89.5600    6.8448 H       1  UNL1        0.1549
     11 C          58.9244   91.2617    4.8769 C.3     1  UNL1        0.0812
     12 C          57.6563   91.9726    4.5071 C.3     1  UNL1        0.0143
     13 C          58.8952   92.1726    3.6854 C.3     1  UNL1        0.0330
     14 C          59.5935   92.8138    2.5231 C.ar    1  UNL1       -0.0029
     15 C          61.0530   93.1475    2.6162 C.ar    1  UNL1       -0.0011
     16 C          61.7513   93.7888    1.4539 C.ar    1  UNL1        0.0204
     17 C          60.9902   94.0965    0.1984 C.ar    1  UNL1        0.0989
     18 N          59.5308   93.7628    0.1053 N.ar    1  UNL1       -0.2426
     19 C          58.8324   93.1215    1.2677 C.ar    1  UNL1        0.0946
     20 S          61.9253   85.7473   10.3847 S.O2    1  UNL1        0.0072
     21 O          62.7023   85.2361    9.2080 O.2     1  UNL1       -0.1687
     22 O          61.1483   86.2585   11.5615 O.2     1  UNL1       -0.1687
     23 C          62.6743   84.8110   11.2860 C.3     1  UNL1        0.1388
     24 C          63.4793   83.6891   10.6999 C.3     1  UNL1        0.0561
     25 C          64.2283   82.7529   11.6012 C.3     1  UNL1        0.1439
     26 O          64.1724   82.9385   13.0886 O.3     1  UNL1       -0.3537
     27 C          63.3674   84.0603   13.6748 C.3     1  UNL1        0.1439
     28 C          62.6184   84.9966   12.7735 C.3     1  UNL1        0.0561
@<TRIPOS>BOND
     1     7     8    2
     2     8     9   am
     3     9     1    1
     4     1     2   ar
     5     2     3   ar
     6     3     4   ar
     7     4    20    1
     8    20    21    2
     9    20    22    2
    10    20    23    1
    11    23    24    1
    12    24    25    1
    13    25    26    1
    14    26    27    1
    15    27    28    1
    16     4     5   ar
    17     5     6   ar
    18    11     8    1
    19    11    12    1
    20    12    13    1
    21    13    14    1
    22    14    15   ar
    23    15    16   ar
    24    16    17   ar
    25    17    18   ar
    26    18    19   ar
    27     6     1   ar
    28    13    11    1
    29    19    14   ar
    30    28    23    1
    31     9    10    1
@<TRIPOS>MOLECULE
*****
 28 31 0 0 0
SMALL
GASTEIGER

@<TRIPOS>ATOM
      1 C          64.1009   86.2511   14.2362 C.ar    1  UNL1        0.0504
      2 C          63.1477   86.1451   13.0829 C.ar    1  UNL1        0.0160
      3 C          62.8889   84.8130   12.4438 C.ar    1  UNL1        0.0196
      4 C          63.5832   83.5869   12.9581 C.ar    1  UNL1        0.1057
      5 C          64.5363   83.6928   14.1115 C.ar    1  UNL1        0.0196
      6 C          64.7952   85.0249   14.7505 C.ar    1  UNL1        0.0160
      7 O          63.4951   88.7776   12.7362 O.2     1  UNL1       -0.2748
      8 C          64.0569   88.8464   14.1253 C.2     1  UNL1        0.2260
      9 N          64.3597   87.5833   14.8753 N.am    1  UNL1       -0.2839
     10 H          64.7284   87.6285   15.7871 H       1  UNL1        0.1549
     11 C          64.3157   90.1786   14.7645 C.3     1  UNL1        0.0812
     12 C          63.8216   91.3700   15.5301 C.3     1  UNL1        0.0143
     13 C          65.2583   91.2945   15.1058 C.3     1  UNL1        0.0330
     14 C          66.6319   91.8951   15.0578 C.ar    1  UNL1       -0.0029
     15 C          67.1237   92.7345   16.1994 C.ar    1  UNL1       -0.0011
     16 C          68.4974   93.3351   16.1515 C.ar    1  UNL1        0.0204
     17 C          69.3793   93.0963   14.9618 C.ar    1  UNL1        0.0989
     18 N          68.8875   92.2568   13.8201 N.ar    1  UNL1       -0.2426
     19 C          67.5137   91.6562   13.8681 C.ar    1  UNL1        0.0946
     20 S          63.3243   82.2547   12.3190 S.O2    1  UNL1        0.0072
     21 O          64.0602   82.7011   11.0905 O.2     1  UNL1       -0.1687
     22 O          62.5885   81.8083   13.5475 O.2     1  UNL1       -0.1687
     23 C          63.0655   80.9226   11.6799 C.3     1  UNL1        0.1388
     24 C          62.6867   79.7447   12.5280 C.3     1  UNL1        0.0561
     25 C          62.4279   78.4127   11.8889 C.3     1  UNL1        0.1439
     26 O          62.5478   78.2584   10.4016 O.3     1  UNL1       -0.3537
     27 C          62.9266   79.4362    9.5536 C.3     1  UNL1        0.1439
     28 C          63.1854   80.7683   10.1927 C.3     1  UNL1        0.0561
@<TRIPOS>BOND
     1     7     8    2
     2     8     9   am
     3     9     1    1
     4     1     2   ar
     5     2     3   ar
     6     3     4   ar
     7     4    20    1
     8    20    21    2
     9    20    22    2
    10    20    23    1
    11    23    24    1
    12    24    25    1
    13    25    26    1
    14    26    27    1
    15    27    28    1
    16     4     5   ar
    17     5     6   ar
    18    11     8    1
    19    11    12    1
    20    12    13    1
    21    13    14    1
    22    14    15   ar
    23    15    16   ar
    24    16    17   ar
    25    17    18   ar
    26    18    19   ar
    27     6     1   ar
    28    13    11    1
    29    19    14   ar
    30    28    23    1
    31     9    10    1
@<TRIPOS>MOLECULE
*****
 28 31 0 0 0
SMALL
GASTEIGER

@<TRIPOS>ATOM
      1 C          64.0930   89.1682   13.3753 C.ar    1  UNL1        0.0504
      2 C          63.3121   88.5900   12.2327 C.ar    1  UNL1        0.0160
      3 C          62.9691   87.1298   12.2216 C.ar    1  UNL1        0.0196
      4 C          63.4071   86.2479   13.3531 C.ar    1  UNL1        0.1057
      5 C          64.1880   86.8262   14.4958 C.ar    1  UNL1        0.0196
      6 C          64.5310   88.2864   14.5069 C.ar    1  UNL1        0.0160
      7 O          66.7147   90.0847   14.5097 O.2     1  UNL1       -0.2748
      8 C          65.7468   91.0867   13.9536 C.2     1  UNL1        0.2260
      9 N          64.4360   90.6285   13.3864 N.am    1  UNL1       -0.2839
     10 H          63.8007   91.2862   13.0214 H       1  UNL1        0.1549
     11 C          66.0898   92.5470   13.9647 C.3     1  UNL1        0.0812
     12 C          66.4594   93.7888   14.7205 C.3     1  UNL1        0.0143
     13 C          66.3143   93.8343   13.2282 C.3     1  UNL1        0.0330
     14 C          66.3601   94.6038   11.9415 C.ar    1  UNL1       -0.0029
     15 C          66.1204   96.0845   11.9441 C.ar    1  UNL1       -0.0011
     16 C          66.1662   96.8539   10.6573 C.ar    1  UNL1        0.0204
     17 C          66.4518   96.1427    9.3679 C.ar    1  UNL1        0.0989
     18 N          66.6916   94.6620    9.3652 N.ar    1  UNL1       -0.2426
     19 C          66.6457   93.8925   10.6521 C.ar    1  UNL1        0.0946
     20 S          63.0641   84.7876   13.3420 S.O2    1  UNL1        0.0072
     21 O          63.1040   84.7668   14.8413 O.2     1  UNL1       -0.1687
     22 O          63.0241   84.8083   11.8427 O.2     1  UNL1       -0.1687
     23 C          62.7211   83.3274   13.3310 C.3     1  UNL1        0.1388
     24 C          63.1884   82.4557   12.2032 C.3     1  UNL1        0.0561
     25 C          62.8454   80.9955   12.1921 C.3     1  UNL1        0.1439
     26 O          62.0351   80.4070   13.3088 O.3     1  UNL1       -0.3537
     27 C          61.5678   81.2786   14.4365 C.3     1  UNL1        0.1439
     28 C          61.9108   82.7388   14.4477 C.3     1  UNL1        0.0561
@<TRIPOS>BOND
     1     7     8    2
     2     8     9   am
     3     9     1    1
     4     1     2   ar
     5     2     3   ar
     6     3     4   ar
     7     4    20    1
     8    20    21    2
     9    20    22    2
    10    20    23    1
    11    23    24    1
    12    24    25    1
    13    25    26    1
    14    26    27    1
    15    27    28    1
    16     4     5   ar
    17     5     6   ar
    18    11     8    1
    19    11    12    1
    20    12    13    1
    21    13    14    1
    22    14    15   ar
    23    15    16   ar
    24    16    17   ar
    25    17    18   ar
    26    18    19   ar
    27     6     1   ar
    28    13    11    1
    29    19    14   ar
    30    28    23    1
    31     9    10    1
@<TRIPOS>MOLECULE
*****
 28 31 0 0 0
SMALL
GASTEIGER

@<TRIPOS>ATOM
      1 C          63.3263   86.6728   12.6900 C.ar    1  UNL1        0.0504
      2 C          62.6142   86.2397   11.4429 C.ar    1  UNL1        0.0160
      3 C          62.4942   84.7806   11.1162 C.ar    1  UNL1        0.0196
      4 C          63.0862   83.7548   12.0365 C.ar    1  UNL1        0.1057
      5 C          63.7983   84.1879   13.2836 C.ar    1  UNL1        0.0196
      6 C          63.9183   85.6469   13.6104 C.ar    1  UNL1        0.0160
      7 O          64.9190   87.5494   15.0764 O.2     1  UNL1       -0.2748
      8 C          64.2427   88.5702   14.2100 C.2     1  UNL1        0.2260
      9 N          63.4464   88.1319   13.0168 N.am    1  UNL1       -0.2839
     10 H          63.0025   88.8018   12.4481 H       1  UNL1        0.1549
     11 C          64.3628   90.0293   14.5368 C.3     1  UNL1        0.0812
     12 C          64.1897   91.1623   15.5044 C.3     1  UNL1        0.0143
     13 C          64.7438   91.4234   14.1352 C.3     1  UNL1        0.0330
     14 C          65.2837   92.3790   13.1128 C.ar    1  UNL1       -0.0029
     15 C          64.8738   92.2503   11.6757 C.ar    1  UNL1       -0.0011
     16 C          65.4137   93.2059   10.6533 C.ar    1  UNL1        0.0204
     17 C          66.3636   94.2902   11.0681 C.ar    1  UNL1        0.0989
     18 N          66.7736   94.4189   12.5052 N.ar    1  UNL1       -0.2426
     19 C          66.2336   93.4632   13.5276 C.ar    1  UNL1        0.0946
     20 S          62.9662   82.2957   11.7097 S.O2    1  UNL1        0.0072
     21 O          62.2722   82.0597   13.0184 O.2     1  UNL1       -0.1687
     22 O          63.6602   82.5316   10.4011 O.2     1  UNL1       -0.1687
     23 C          62.8461   80.8366   11.3830 C.3     1  UNL1        0.1388
     24 C          62.9922   80.3712    9.9645 C.3     1  UNL1        0.0561
     25 C          62.8721   78.9122    9.6378 C.3     1  UNL1        0.1439
     26 O          62.6059   77.9185   10.7295 O.3     1  UNL1       -0.3537
     27 C          62.4598   78.3839   12.1479 C.3     1  UNL1        0.1439
     28 C          62.5799   79.8430   12.4747 C.3     1  UNL1        0.0561
@<TRIPOS>BOND
     1     7     8    2
     2     8     9   am
     3     9     1    1
     4     1     2   ar
     5     2     3   ar
     6     3     4   ar
     7     4    20    1
     8    20    21    2
     9    20    22    2
    10    20    23    1
    11    23    24    1
    12    24    25    1
    13    25    26    1
    14    26    27    1
    15    27    28    1
    16     4     5   ar
    17     5     6   ar
    18    11     8    1
    19    11    12    1
    20    12    13    1
    21    13    14    1
    22    14    15   ar
    23    15    16   ar
    24    16    17   ar
    25    17    18   ar
    26    18    19   ar
    27     6     1   ar
    28    13    11    1
    29    19    14   ar
    30    28    23    1
    31     9    10    1
@<TRIPOS>MOLECULE
*****
 28 31 0 0 0
SMALL
GASTEIGER

@<TRIPOS>ATOM
      1 C          63.5626   88.4946   13.1707 C.ar    1  UNL1        0.0504
      2 C          63.2538   89.0192   11.7998 C.ar    1  UNL1        0.0160
      3 C          63.7932   90.3503   11.3670 C.ar    1  UNL1        0.0196
      4 C          64.6415   91.1567   12.3052 C.ar    1  UNL1        0.1057
      5 C          64.9504   90.6321   13.6760 C.ar    1  UNL1        0.0196
      6 C          64.4109   89.3010   14.1088 C.ar    1  UNL1        0.0160
      7 O          65.2400   86.6762   14.8678 O.2     1  UNL1       -0.2748
      8 C          63.8619   86.2544   14.4520 C.2     1  UNL1        0.2260
      9 N          63.0232   87.1635   13.6035 N.am    1  UNL1       -0.2839
     10 H          62.1187   86.8866   13.3306 H       1  UNL1        0.1549
     11 C          63.3224   84.9233   14.8848 C.3     1  UNL1        0.0812
     12 C          62.7579   84.0359   15.9543 C.3     1  UNL1        0.0143
     13 C          62.9527   83.5052   14.5650 C.3     1  UNL1        0.0330
     14 C          62.8516   82.3801   13.5782 C.ar    1  UNL1       -0.0029
     15 C          63.1362   82.6279   12.1264 C.ar    1  UNL1       -0.0011
     16 C          63.0352   81.5028   11.1396 C.ar    1  UNL1        0.0204
     17 C          62.6496   80.1297   11.6045 C.ar    1  UNL1        0.0989
     18 N          62.3651   79.8819   13.0563 N.ar    1  UNL1       -0.2426
     19 C          62.4661   81.0071   14.0431 C.ar    1  UNL1        0.0946
     20 S          65.1810   92.4878   11.8724 S.O2    1  UNL1        0.0072
     21 O          64.7363   92.2109   10.4668 O.2     1  UNL1       -0.1687
     22 O          65.6256   92.7647   13.2779 O.2     1  UNL1       -0.1687
     23 C          65.7204   93.8188   11.4395 C.3     1  UNL1        0.1388
     24 C          65.9691   94.8937   12.4558 C.3     1  UNL1        0.0561
     25 C          66.5085   96.2248   12.0230 C.3     1  UNL1        0.1439
     26 O          66.7992   96.4809   10.5739 O.3     1  UNL1       -0.3537
     27 C          66.5505   95.4061    9.5576 C.3     1  UNL1        0.1439
     28 C          66.0111   94.0750    9.9904 C.3     1  UNL1        0.0561
@<TRIPOS>BOND
     1     7     8    2
     2     8     9   am
     3     9     1    1
     4     1     2   ar
     5     2     3   ar
     6     3     4   ar
     7     4    20    1
     8    20    21    2
     9    20    22    2
    10    20    23    1
    11    23    24    1
    12    24    25    1
    13    25    26    1
    14    26    27    1
    15    27    28    1
    16     4     5   ar
    17     5     6   ar
    18    11     8    1
    19    11    12    1
    20    12    13    1
    21    13    14    1
    22    14    15   ar
    23    15    16   ar
    24    16    17   ar
    25    17    18   ar
    26    18    19   ar
    27     6     1   ar
    28    13    11    1
    29    19    14   ar
    30    28    23    1
    31     9    10    1
