@<TRIPOS>MOLECULE
*****
 38 41 0 0 0
SMALL
GASTEIGER

@<TRIPOS>ATOM
      1 C          62.7228   85.7127   12.3095 C.ar    1  UNL1        0.1395
      2 C          62.0963   86.9823   11.8139 C.ar    1  UNL1        0.0257
      3 C          61.5834   87.0660   10.4067 C.ar    1  UNL1        0.0509
      4 C          60.9570   88.3356    9.9111 C.ar    1  UNL1        0.1353
      5 N          60.4441   88.4194    8.5040 N.ar    1  UNL1       -0.2089
      6 C          60.5576   87.2335    7.5926 C.ar    1  UNL1        0.2000
      7 N          61.1841   85.9639    8.0882 N.ar    1  UNL1       -0.2238
      8 C          61.6970   85.8802    9.4953 C.ar    1  UNL1        0.0888
      9 C          62.3234   84.6105    9.9909 C.ar    1  UNL1        0.0575
     10 C          62.8363   84.5268   11.3980 C.ar    1  UNL1        0.1571
     11 S          63.2357   85.6290   13.7165 S.O2    1  UNL1        0.0083
     12 O          62.4940   84.3397   13.9102 O.2     1  UNL1       -0.1686
     13 O          63.9773   86.9183   13.5229 O.2     1  UNL1       -0.1686
     14 C          64.7270   86.6443   14.8324 C.3     1  UNL1        0.0240
     15 C          63.7486   85.5453   15.1237 C.3     1  UNL1        0.1152
     16 C          62.7702   84.4463   15.4150 C.3     1  UNL1        0.0240
     17 C          64.2616   85.4616   16.5307 C.3     1  UNL1        0.0240
     18 N          60.8434   89.5215   10.8226 N.pl3   1  UNL1       -0.2978
     19 H          59.9623   89.7967   11.1649 H       1  UNL1        0.1536
     20 C          62.0723   90.2882   11.2125 C.ar    1  UNL1        0.0509
     21 C          62.8551   91.0308   10.1704 C.ar    1  UNL1        0.0153
     22 C          64.0840   91.7975   10.5603 C.ar    1  UNL1        0.0093
     23 C          64.5302   91.8214   11.9922 C.ar    1  UNL1        0.0486
     24 S          65.6919   92.4851   12.6705 S.2     1  UNL1       -0.0645
     25 C          65.6271   92.1526   14.1318 C.ar    1  UNL1        0.1345
     26 N          64.4254   91.2835   14.3565 N.ar    1  UNL1       -0.2362
     27 C          63.7475   91.0788   13.0342 C.ar    1  UNL1        0.0892
     28 C          62.5185   90.3122   12.6443 C.ar    1  UNL1        0.0343
     29 O          63.4628   83.2572   11.8936 O.3     1  UNL1       -0.4714
     30 C          63.6415   82.0955   10.9617 C.3     1  UNL1        0.2380
     31 C          62.7753   80.8792   11.1046 C.3     1  UNL1        0.2007
     32 O          62.8200   80.0708   12.3672 O.3     1  UNL1       -0.2694
     33 P          62.5829   80.7343   13.6914 P.3     1  UNL1        0.4732
     34 O          63.8180   80.0827   14.2391 O.2     1  UNL1       -0.2275
     35 O          61.3478   81.3860   13.1438 O.3     1  UNL1       -0.3026
     36 O          62.3459   81.3979   15.0156 O.3     1  UNL1       -0.3026
     37 H          61.2261   81.1219   12.2184 H       1  UNL1        0.2220
     38 H          63.0478   81.1436   15.6350 H       1  UNL1        0.2220
@<TRIPOS>BOND
     1    14    15    1
     2    15    16    1
     3    15    17    1
     4    15    11    1
     5    11    12    2
     6    11    13    2
     7    11     1    1
     8     1     2   ar
     9     2     3   ar
    10     3     4   ar
    11     4    18    1
    12    18    20    1
    13    20    21   ar
    14    21    22   ar
    15    22    23   ar
    16    23    24   ar
    17    24    25   ar
    18    25    26   ar
    19    26    27   ar
    20    27    28   ar
    21     4     5   ar
    22     5     6   ar
    23     6     7   ar
    24     7     8   ar
    25     8     9   ar
    26     9    10   ar
    27    10    29    1
    28    29    30    1
    29    30    31    1
    30    31    32    1
    31    32    33    1
    32    33    34    2
    33    33    35    1
    34    33    36    1
    35    10     1   ar
    36     8     3   ar
    37    28    20   ar
    38    27    23   ar
    39    18    19    1
    40    35    37    1
    41    36    38    1
@<TRIPOS>MOLECULE
*****
 38 41 0 0 0
SMALL
GASTEIGER

@<TRIPOS>ATOM
      1 C          63.5327   89.1015   14.3303 C.ar    1  UNL1        0.1395
      2 C          62.8146   88.7725   13.0551 C.ar    1  UNL1        0.0257
      3 C          62.9303   89.6873   11.8718 C.ar    1  UNL1        0.0509
      4 C          62.2122   89.3584   10.5966 C.ar    1  UNL1        0.1353
      5 N          62.3278   90.2730    9.4134 N.ar    1  UNL1       -0.2089
      6 C          63.1614   91.5166    9.5055 C.ar    1  UNL1        0.2000
      7 N          63.8795   91.8455   10.7807 N.ar    1  UNL1       -0.2238
      8 C          63.7639   90.9309   11.9639 C.ar    1  UNL1        0.0888
      9 C          64.4820   91.2598   13.2391 C.ar    1  UNL1        0.0575
     10 C          64.3664   90.3451   14.4223 C.ar    1  UNL1        0.1571
     11 S          63.4171   88.1868   15.5135 S.O2    1  UNL1        0.0083
     12 O          62.5043   89.1700   16.1844 O.2     1  UNL1       -0.1686
     13 O          64.3299   87.2036   14.8426 O.2     1  UNL1       -0.1686
     14 C          62.9091   88.4357   17.5580 C.3     1  UNL1        0.0240
     15 C          63.3015   87.2720   16.6967 C.3     1  UNL1        0.1152
     16 C          63.6940   86.1084   15.8355 C.3     1  UNL1        0.0240
     17 C          63.1860   86.3574   17.8799 C.3     1  UNL1        0.0240
     18 N          61.3786   88.1147   10.5046 N.pl3   1  UNL1       -0.2978
     19 H          60.3965   88.1771   10.5341 H       1  UNL1        0.1536
     20 C          62.0413   86.7760   10.3676 C.ar    1  UNL1        0.0509
     21 C          62.5166   86.3085    9.0239 C.ar    1  UNL1        0.0153
     22 C          63.1793   84.9698    8.8869 C.ar    1  UNL1        0.0093
     23 C          63.3666   84.0987   10.0936 C.ar    1  UNL1        0.0486
     24 S          63.9803   82.7408   10.2656 S.2     1  UNL1       -0.0645
     25 C          63.8842   82.3691   11.7157 C.ar    1  UNL1        0.1345
     26 N          63.2112   83.4973   12.4397 N.ar    1  UNL1       -0.2362
     27 C          62.8913   84.5662   11.4372 C.ar    1  UNL1        0.0892
     28 C          62.2286   85.9049   11.5742 C.ar    1  UNL1        0.0343
     29 O          65.0844   90.6740   15.6975 O.3     1  UNL1       -0.4714
     30 C          65.0258   92.0658   16.2538 C.3     1  UNL1        0.2380
     31 C          66.1318   93.0367   15.9635 C.3     1  UNL1        0.2007
     32 O          67.5415   92.7068   16.3558 O.3     1  UNL1       -0.2694
     33 P          68.6005   92.5698   15.3024 P.3     1  UNL1        0.4732
     34 O          69.2531   93.8275   15.7948 O.2     1  UNL1       -0.2275
     35 O          67.9480   91.3122   14.8099 O.3     1  UNL1       -0.3026
     36 O          69.6596   92.4328   14.2490 O.3     1  UNL1       -0.3026
     37 H          67.1616   91.1246   15.3460 H       1  UNL1        0.2220
     38 H          70.2857   93.1700   14.3222 H       1  UNL1        0.2220
@<TRIPOS>BOND
     1    14    15    1
     2    15    16    1
     3    15    17    1
     4    15    11    1
     5    11    12    2
     6    11    13    2
     7    11     1    1
     8     1     2   ar
     9     2     3   ar
    10     3     4   ar
    11     4    18    1
    12    18    20    1
    13    20    21   ar
    14    21    22   ar
    15    22    23   ar
    16    23    24   ar
    17    24    25   ar
    18    25    26   ar
    19    26    27   ar
    20    27    28   ar
    21     4     5   ar
    22     5     6   ar
    23     6     7   ar
    24     7     8   ar
    25     8     9   ar
    26     9    10   ar
    27    10    29    1
    28    29    30    1
    29    30    31    1
    30    31    32    1
    31    32    33    1
    32    33    34    2
    33    33    35    1
    34    33    36    1
    35    10     1   ar
    36     8     3   ar
    37    28    20   ar
    38    27    23   ar
    39    18    19    1
    40    35    37    1
    41    36    38    1
@<TRIPOS>MOLECULE
*****
 38 41 0 0 0
SMALL
GASTEIGER

@<TRIPOS>ATOM
      1 C          62.4955   85.6526   12.2901 C.ar    1  UNL1        0.1395
      2 C          62.1276   87.1068   12.2925 C.ar    1  UNL1        0.0257
      3 C          61.5186   87.7284   11.0707 C.ar    1  UNL1        0.0509
      4 C          61.1507   89.1826   11.0731 C.ar    1  UNL1        0.1353
      5 N          60.5417   89.8042    9.8514 N.ar    1  UNL1       -0.2089
      6 C          60.3007   88.9717    8.6272 C.ar    1  UNL1        0.2000
      7 N          60.6685   87.5175    8.6248 N.ar    1  UNL1       -0.2238
      8 C          61.2775   86.8958    9.8465 C.ar    1  UNL1        0.0888
      9 C          61.6454   85.4417    9.8441 C.ar    1  UNL1        0.0575
     10 C          62.2544   84.8200   11.0658 C.ar    1  UNL1        0.1571
     11 S          63.1045   85.0310   13.5118 S.O2    1  UNL1        0.0083
     12 O          64.4168   85.6816   13.1887 O.2     1  UNL1       -0.1686
     13 O          61.7921   84.3804   13.8349 O.2     1  UNL1       -0.1686
     14 C          65.0775   84.5514   14.1260 C.3     1  UNL1        0.0240
     15 C          63.7134   84.4093   14.7336 C.3     1  UNL1        0.1152
     16 C          62.3494   84.2672   15.3412 C.3     1  UNL1        0.0240
     17 C          64.3224   83.7876   15.9553 C.3     1  UNL1        0.0240
     18 N          61.3918   90.0152   12.2974 N.pl3   1  UNL1       -0.2978
     19 H          60.6568   90.1846   12.9301 H       1  UNL1        0.1536
     20 C          62.7528   90.5896   12.5576 C.ar    1  UNL1        0.0509
     21 C          63.4026   90.4021   13.8966 C.ar    1  UNL1        0.0153
     22 C          64.7636   90.9765   14.1568 C.ar    1  UNL1        0.0093
     23 C          65.4748   91.7384   13.0781 C.ar    1  UNL1        0.0486
     24 S          66.8135   92.4143   13.0425 S.2     1  UNL1       -0.0645
     25 C          66.9911   93.0195   11.6815 C.ar    1  UNL1        0.1345
     26 N          65.7622   92.7176   10.8761 N.ar    1  UNL1       -0.2362
     27 C          64.8251   91.9259   11.7392 C.ar    1  UNL1        0.0892
     28 C          63.4641   91.3515   11.4790 C.ar    1  UNL1        0.0343
     29 O          62.6223   83.3658   11.0633 O.3     1  UNL1       -0.4714
     30 C          64.0655   82.9573   11.0691 C.3     1  UNL1        0.2380
     31 C          64.5218   81.8278   11.9442 C.3     1  UNL1        0.2007
     32 O          63.5553   80.7541   12.3478 O.3     1  UNL1       -0.2694
     33 P          62.7843   80.8816   13.6282 P.3     1  UNL1        0.4732
     34 O          63.9332   80.2775   14.3801 O.2     1  UNL1       -0.2275
     35 O          61.6355   81.4857   12.8763 O.3     1  UNL1       -0.3026
     36 O          62.0134   81.0091   14.9086 O.3     1  UNL1       -0.3026
     37 H          61.8579   81.5381   11.9336 H       1  UNL1        0.2220
     38 H          62.5477   80.6683   15.6430 H       1  UNL1        0.2220
@<TRIPOS>BOND
     1    14    15    1
     2    15    16    1
     3    15    17    1
     4    15    11    1
     5    11    12    2
     6    11    13    2
     7    11     1    1
     8     1     2   ar
     9     2     3   ar
    10     3     4   ar
    11     4    18    1
    12    18    20    1
    13    20    21   ar
    14    21    22   ar
    15    22    23   ar
    16    23    24   ar
    17    24    25   ar
    18    25    26   ar
    19    26    27   ar
    20    27    28   ar
    21     4     5   ar
    22     5     6   ar
    23     6     7   ar
    24     7     8   ar
    25     8     9   ar
    26     9    10   ar
    27    10    29    1
    28    29    30    1
    29    30    31    1
    30    31    32    1
    31    32    33    1
    32    33    34    2
    33    33    35    1
    34    33    36    1
    35    10     1   ar
    36     8     3   ar
    37    28    20   ar
    38    27    23   ar
    39    18    19    1
    40    35    37    1
    41    36    38    1
@<TRIPOS>MOLECULE
*****
 38 41 0 0 0
SMALL
GASTEIGER

@<TRIPOS>ATOM
      1 C          61.5745   87.3102    9.9455 C.ar    1  UNL1        0.1395
      2 C          62.5232   86.9983   11.0647 C.ar    1  UNL1        0.0257
      3 C          62.6567   87.9452   12.2205 C.ar    1  UNL1        0.0509
      4 C          63.6054   87.6334   13.3397 C.ar    1  UNL1        0.1353
      5 N          63.7389   88.5801   14.4955 N.ar    1  UNL1       -0.2089
      6 C          62.9237   89.8387   14.5320 C.ar    1  UNL1        0.2000
      7 N          61.9750   90.1506   13.4127 N.ar    1  UNL1       -0.2238
      8 C          61.8415   89.2038   12.2570 C.ar    1  UNL1        0.0888
      9 C          60.8928   89.5156   11.1377 C.ar    1  UNL1        0.0575
     10 C          60.7593   88.5688    9.9820 C.ar    1  UNL1        0.1571
     11 S          61.4410   86.3634    8.7897 S.O2    1  UNL1        0.0083
     12 O          62.9300   86.3743    8.6088 O.2     1  UNL1       -0.1686
     13 O          59.9520   86.3525    8.9707 O.2     1  UNL1       -0.1686
     14 C          59.8802   85.8404    7.4518 C.3     1  UNL1        0.0240
     15 C          61.3074   85.4166    7.6339 C.3     1  UNL1        0.1152
     16 C          62.7347   84.9928    7.8161 C.3     1  UNL1        0.0240
     17 C          61.1738   84.4698    6.4782 C.3     1  UNL1        0.0240
     18 N          64.4206   86.3747   13.3032 N.pl3   1  UNL1       -0.2978
     19 H          65.3843   86.4179   13.1064 H       1  UNL1        0.1536
     20 C          63.7675   85.0503   13.5666 C.ar    1  UNL1        0.0509
     21 C          62.9771   84.8407   14.8241 C.ar    1  UNL1        0.0153
     22 C          62.3240   83.5163   15.0875 C.ar    1  UNL1        0.0093
     23 C          62.4614   82.4014   14.0934 C.ar    1  UNL1        0.0486
     24 S          61.9339   80.9973   14.0808 S.2     1  UNL1       -0.0645
     25 C          62.3984   80.3391   12.8155 C.ar    1  UNL1        0.1345
     26 N          63.2129   81.3364   12.0461 N.ar    1  UNL1       -0.2362
     27 C          63.2518   82.6110   12.8359 C.ar    1  UNL1        0.0892
     28 C          63.9049   83.9354   12.5725 C.ar    1  UNL1        0.0343
     29 O          59.8106   88.8807    8.8627 O.3     1  UNL1       -0.4714
     30 C          60.2947   89.6275    7.6554 C.3     1  UNL1        0.2380
     31 C          59.4337   89.7108    6.4299 C.3     1  UNL1        0.2007
     32 O          58.5690   90.9148    6.2012 O.3     1  UNL1       -0.2694
     33 P          58.5784   91.6028    4.8682 P.3     1  UNL1        0.4732
     34 O          57.0785   91.5920    4.8521 O.2     1  UNL1       -0.2275
     35 O          60.0783   91.6135    4.8844 O.3     1  UNL1       -0.3026
     36 O          58.5879   92.2907    3.5353 O.3     1  UNL1       -0.3026
     37 H          60.3958   91.1964    5.7006 H       1  UNL1        0.2220
     38 H          57.6754   92.4324    3.2381 H       1  UNL1        0.2220
@<TRIPOS>BOND
     1    14    15    1
     2    15    16    1
     3    15    17    1
     4    15    11    1
     5    11    12    2
     6    11    13    2
     7    11     1    1
     8     1     2   ar
     9     2     3   ar
    10     3     4   ar
    11     4    18    1
    12    18    20    1
    13    20    21   ar
    14    21    22   ar
    15    22    23   ar
    16    23    24   ar
    17    24    25   ar
    18    25    26   ar
    19    26    27   ar
    20    27    28   ar
    21     4     5   ar
    22     5     6   ar
    23     6     7   ar
    24     7     8   ar
    25     8     9   ar
    26     9    10   ar
    27    10    29    1
    28    29    30    1
    29    30    31    1
    30    31    32    1
    31    32    33    1
    32    33    34    2
    33    33    35    1
    34    33    36    1
    35    10     1   ar
    36     8     3   ar
    37    28    20   ar
    38    27    23   ar
    39    18    19    1
    40    35    37    1
    41    36    38    1
@<TRIPOS>MOLECULE
*****
 38 41 0 0 0
SMALL
GASTEIGER

@<TRIPOS>ATOM
      1 C          62.8525   86.0354   11.7758 C.ar    1  UNL1        0.1395
      2 C          63.0360   87.2897   12.5776 C.ar    1  UNL1        0.0257
      3 C          62.8529   88.6291   11.9273 C.ar    1  UNL1        0.0509
      4 C          63.0364   89.8834   12.7291 C.ar    1  UNL1        0.1353
      5 N          62.8534   91.2227   12.0789 N.ar    1  UNL1       -0.2089
      6 C          62.4869   91.3076   10.6268 C.ar    1  UNL1        0.2000
      7 N          62.3035   90.0532    9.8250 N.ar    1  UNL1       -0.2238
      8 C          62.4865   88.7139   10.4752 C.ar    1  UNL1        0.0888
      9 C          62.3030   87.4596    9.6734 C.ar    1  UNL1        0.0575
     10 C          62.4860   86.1203   10.3237 C.ar    1  UNL1        0.1571
     11 S          63.0355   84.6961   12.4260 S.O2    1  UNL1        0.0083
     12 O          64.0361   84.3217   11.3732 O.2     1  UNL1       -0.1686
     13 O          62.0349   85.0705   13.4789 O.2     1  UNL1       -0.1686
     14 C          62.5182   83.8575   14.3046 C.3     1  UNL1        0.0240
     15 C          63.2185   83.3568   13.0763 C.3     1  UNL1        0.1152
     16 C          63.9189   82.8560   11.8480 C.3     1  UNL1        0.0240
     17 C          63.4015   82.0176   13.7266 C.3     1  UNL1        0.0240
     18 N          63.4029   89.7985   14.1812 N.pl3   1  UNL1       -0.2978
     19 H          62.9413   89.1574   14.7687 H       1  UNL1        0.1536
     20 C          64.4727   90.6903   14.7381 C.ar    1  UNL1        0.0509
     21 C          64.2343   91.4404   16.0151 C.ar    1  UNL1        0.0153
     22 C          65.3041   92.3322   16.5720 C.ar    1  UNL1        0.0093
     23 C          66.6123   92.4740   15.8519 C.ar    1  UNL1        0.0486
     24 S          67.8444   93.2733   16.1569 S.2     1  UNL1       -0.0645
     25 C          68.8442   93.0173   15.0684 C.ar    1  UNL1        0.1345
     26 N          68.2301   92.0598   14.0907 N.ar    1  UNL1       -0.2362
     27 C          66.8507   91.7240   14.5749 C.ar    1  UNL1        0.0892
     28 C          65.7809   90.8321   14.0180 C.ar    1  UNL1        0.0343
     29 O          62.3026   84.8659    9.5219 O.3     1  UNL1       -0.4714
     30 C          62.3941   84.9122    8.0254 C.3     1  UNL1        0.2380
     31 C          61.2482   85.4492    7.2201 C.3     1  UNL1        0.2007
     32 O          59.9319   85.7290    7.8827 O.3     1  UNL1       -0.2694
     33 P          59.2002   87.0049    7.5884 P.3     1  UNL1        0.4732
     34 O          60.5045   87.7450    7.5544 O.2     1  UNL1       -0.2275
     35 O          57.8960   86.2648    7.6224 O.3     1  UNL1       -0.3026
     36 O          58.4685   88.2808    7.2941 O.3     1  UNL1       -0.3026
     37 H          58.0609   85.3273    7.8092 H       1  UNL1        0.2220
     38 H          59.1060   89.0071    7.2099 H       1  UNL1        0.2220
@<TRIPOS>BOND
     1    14    15    1
     2    15    16    1
     3    15    17    1
     4    15    11    1
     5    11    12    2
     6    11    13    2
     7    11     1    1
     8     1     2   ar
     9     2     3   ar
    10     3     4   ar
    11     4    18    1
    12    18    20    1
    13    20    21   ar
    14    21    22   ar
    15    22    23   ar
    16    23    24   ar
    17    24    25   ar
    18    25    26   ar
    19    26    27   ar
    20    27    28   ar
    21     4     5   ar
    22     5     6   ar
    23     6     7   ar
    24     7     8   ar
    25     8     9   ar
    26     9    10   ar
    27    10    29    1
    28    29    30    1
    29    30    31    1
    30    31    32    1
    31    32    33    1
    32    33    34    2
    33    33    35    1
    34    33    36    1
    35    10     1   ar
    36     8     3   ar
    37    28    20   ar
    38    27    23   ar
    39    18    19    1
    40    35    37    1
    41    36    38    1
@<TRIPOS>MOLECULE
*****
 38 41 0 0 0
SMALL
GASTEIGER

@<TRIPOS>ATOM
      1 C          57.6804   95.1568   -3.6865 C.ar    1  UNL1        0.1395
      2 C          58.9223   95.4563   -2.9004 C.ar    1  UNL1        0.0257
      3 C          60.2704   95.2994   -3.5393 C.ar    1  UNL1        0.0509
      4 C          61.5124   95.5989   -2.7532 C.ar    1  UNL1        0.1353
      5 N          62.8604   95.4421   -3.3921 N.ar    1  UNL1       -0.2089
      6 C          62.9665   94.9858   -4.8170 C.ar    1  UNL1        0.2000
      7 N          61.7246   94.6864   -5.6031 N.ar    1  UNL1       -0.2238
      8 C          60.3765   94.8432   -4.9643 C.ar    1  UNL1        0.0888
      9 C          59.1346   94.5437   -5.7504 C.ar    1  UNL1        0.0575
     10 C          57.7866   94.7005   -5.1115 C.ar    1  UNL1        0.1571
     11 S          56.3324   95.3136   -3.0476 S.O2    1  UNL1        0.0083
     12 O          56.4492   93.9371   -2.4633 O.2     1  UNL1       -0.1686
     13 O          56.2156   96.6901   -3.6320 O.2     1  UNL1       -0.1686
     14 C          55.1518   94.1436   -1.7296 C.3     1  UNL1        0.0240
     15 C          54.9843   95.4704   -2.4088 C.3     1  UNL1        0.1152
     16 C          54.8167   96.7973   -3.0880 C.3     1  UNL1        0.0240
     17 C          53.6362   95.6272   -1.7699 C.3     1  UNL1        0.0240
     18 N          61.4062   96.0552   -1.3282 N.pl3   1  UNL1       -0.2978
     19 H          61.2968   97.0122   -1.1246 H       1  UNL1        0.1536
     20 C          61.4667   95.0534   -0.2135 C.ar    1  UNL1        0.0509
     21 C          60.2390   94.7566    0.5957 C.ar    1  UNL1        0.0153
     22 C          60.2995   93.7548    1.7105 C.ar    1  UNL1        0.0093
     23 C          61.5878   93.0498    2.0161 C.ar    1  UNL1        0.0486
     24 S          61.9490   92.0209    3.0460 S.2     1  UNL1       -0.0645
     25 C          63.4000   91.6818    2.8734 C.ar    1  UNL1        0.1345
     26 N          63.9355   92.5011    1.7368 N.ar    1  UNL1       -0.2362
     27 C          62.8155   93.3466    1.2069 C.ar    1  UNL1        0.0892
     28 C          62.7549   94.3484    0.0922 C.ar    1  UNL1        0.0343
     29 O          56.5447   94.4010   -5.8976 O.3     1  UNL1       -0.4714
     30 C          56.5596   93.3248   -6.9424 C.3     1  UNL1        0.2380
     31 C          56.3299   91.8954   -6.5501 C.3     1  UNL1        0.2007
     32 O          57.1719   91.2668   -5.4797 O.3     1  UNL1       -0.2694
     33 P          56.6135   91.0778   -4.1004 P.3     1  UNL1        0.4732
     34 O          55.3499   90.5226   -4.6880 O.2     1  UNL1       -0.2275
     35 O          57.8770   91.6329   -3.5128 O.3     1  UNL1       -0.3026
     36 O          56.0551   90.8888   -2.7211 O.3     1  UNL1       -0.3026
     37 H          58.4898   91.8678   -4.2270 H       1  UNL1        0.2220
     38 H          55.1643   90.5096   -2.7820 H       1  UNL1        0.2220
@<TRIPOS>BOND
     1    14    15    1
     2    15    16    1
     3    15    17    1
     4    15    11    1
     5    11    12    2
     6    11    13    2
     7    11     1    1
     8     1     2   ar
     9     2     3   ar
    10     3     4   ar
    11     4    18    1
    12    18    20    1
    13    20    21   ar
    14    21    22   ar
    15    22    23   ar
    16    23    24   ar
    17    24    25   ar
    18    25    26   ar
    19    26    27   ar
    20    27    28   ar
    21     4     5   ar
    22     5     6   ar
    23     6     7   ar
    24     7     8   ar
    25     8     9   ar
    26     9    10   ar
    27    10    29    1
    28    29    30    1
    29    30    31    1
    30    31    32    1
    31    32    33    1
    32    33    34    2
    33    33    35    1
    34    33    36    1
    35    10     1   ar
    36     8     3   ar
    37    28    20   ar
    38    27    23   ar
    39    18    19    1
    40    35    37    1
    41    36    38    1
@<TRIPOS>MOLECULE
*****
 38 41 0 0 0
SMALL
GASTEIGER

@<TRIPOS>ATOM
      1 C          62.7864   85.7890   12.2233 C.ar    1  UNL1        0.1395
      2 C          62.6571   87.2315   12.6138 C.ar    1  UNL1        0.0257
      3 C          62.1384   88.2328   11.6245 C.ar    1  UNL1        0.0509
      4 C          62.0092   89.6753   12.0150 C.ar    1  UNL1        0.1353
      5 N          61.4905   90.6765   11.0258 N.ar    1  UNL1       -0.2089
      6 C          61.1011   90.2352    9.6461 C.ar    1  UNL1        0.2000
      7 N          61.2304   88.7927    9.2557 N.ar    1  UNL1       -0.2238
      8 C          61.7490   87.7914   10.2448 C.ar    1  UNL1        0.0888
      9 C          61.8782   86.3489    9.8544 C.ar    1  UNL1        0.0575
     10 C          62.3969   85.3477   10.8435 C.ar    1  UNL1        0.1571
     11 S          63.3050   84.7878   13.2125 S.O2    1  UNL1        0.0083
     12 O          62.0681   83.9606   13.0238 O.2     1  UNL1       -0.1686
     13 O          64.5420   85.6150   13.4012 O.2     1  UNL1       -0.1686
     14 C          62.5186   83.0499   14.1404 C.3     1  UNL1        0.0240
     15 C          63.8237   83.7866   14.2018 C.3     1  UNL1        0.1152
     16 C          65.1289   84.5233   14.2631 C.3     1  UNL1        0.0240
     17 C          64.3424   82.7854   15.1909 C.3     1  UNL1        0.0240
     18 N          62.3986   90.1165   13.3948 N.pl3   1  UNL1       -0.2978
     19 H          61.8286   89.8875   14.1641 H       1  UNL1        0.1536
     20 C          63.6566   90.9068   13.6023 C.ar    1  UNL1        0.0509
     21 C          64.3955   91.4641   12.4219 C.ar    1  UNL1        0.0153
     22 C          65.6535   92.2544   12.6294 C.ar    1  UNL1        0.0093
     23 C          66.1726   92.4872   14.0174 C.ar    1  UNL1        0.0486
     24 S          67.3766   93.2212   14.5287 S.2     1  UNL1       -0.0645
     25 C          67.3819   93.1174   16.0251 C.ar    1  UNL1        0.1345
     26 N          66.1810   92.3193   16.4386 N.ar    1  UNL1       -0.2362
     27 C          65.4336   91.9298   15.1978 C.ar    1  UNL1        0.0892
     28 C          64.1757   91.1396   14.9902 C.ar    1  UNL1        0.0343
     29 O          62.5261   83.9052   10.4531 O.3     1  UNL1       -0.4714
     30 C          63.8839   83.3055   10.2368 C.3     1  UNL1        0.2380
     31 C          64.2012   81.9483   10.7910 C.3     1  UNL1        0.2007
     32 O          63.1206   81.1279   11.4306 O.3     1  UNL1       -0.2694
     33 P          62.8519   79.7336   10.9471 P.3     1  UNL1        0.4732
     34 O          62.6006   79.2925   12.3586 O.2     1  UNL1       -0.2275
     35 O          63.1032   80.1746    9.5356 O.3     1  UNL1       -0.3026
     36 O          62.5832   78.3393   10.4636 O.3     1  UNL1       -0.3026
     37 H          63.3212   81.1198    9.5261 H       1  UNL1        0.2220
     38 H          62.3721   77.7699   11.2199 H       1  UNL1        0.2220
@<TRIPOS>BOND
     1    14    15    1
     2    15    16    1
     3    15    17    1
     4    15    11    1
     5    11    12    2
     6    11    13    2
     7    11     1    1
     8     1     2   ar
     9     2     3   ar
    10     3     4   ar
    11     4    18    1
    12    18    20    1
    13    20    21   ar
    14    21    22   ar
    15    22    23   ar
    16    23    24   ar
    17    24    25   ar
    18    25    26   ar
    19    26    27   ar
    20    27    28   ar
    21     4     5   ar
    22     5     6   ar
    23     6     7   ar
    24     7     8   ar
    25     8     9   ar
    26     9    10   ar
    27    10    29    1
    28    29    30    1
    29    30    31    1
    30    31    32    1
    31    32    33    1
    32    33    34    2
    33    33    35    1
    34    33    36    1
    35    10     1   ar
    36     8     3   ar
    37    28    20   ar
    38    27    23   ar
    39    18    19    1
    40    35    37    1
    41    36    38    1
@<TRIPOS>MOLECULE
*****
 38 41 0 0 0
SMALL
GASTEIGER

@<TRIPOS>ATOM
      1 C          62.8293   85.4897   12.7061 C.ar    1  UNL1        0.1395
      2 C          62.2358   86.7476   12.1445 C.ar    1  UNL1        0.0257
      3 C          61.7971   86.7950   10.7108 C.ar    1  UNL1        0.0509
      4 C          61.2035   88.0529   10.1493 C.ar    1  UNL1        0.1353
      5 N          60.7649   88.1002    8.7157 N.ar    1  UNL1       -0.2089
      6 C          60.9198   86.8897    7.8436 C.ar    1  UNL1        0.2000
      7 N          61.5133   85.6318    8.4052 N.ar    1  UNL1       -0.2238
      8 C          61.9520   85.5844    9.8388 C.ar    1  UNL1        0.0888
      9 C          62.5455   84.3265   10.4003 C.ar    1  UNL1        0.0575
     10 C          62.9842   84.2791   11.8339 C.ar    1  UNL1        0.1571
     11 S          63.2680   85.4424   14.1397 S.O2    1  UNL1        0.0083
     12 O          64.5800   86.0614   13.7587 O.2     1  UNL1       -0.1686
     13 O          61.9559   84.8233   14.5207 O.2     1  UNL1       -0.1686
     14 C          62.4783   84.6083   15.9232 C.3     1  UNL1        0.0240
     15 C          63.7066   85.3950   15.5734 C.3     1  UNL1        0.1152
     16 C          64.9349   86.1816   15.2237 C.3     1  UNL1        0.0240
     17 C          64.1452   85.3476   17.0070 C.3     1  UNL1        0.0240
     18 N          61.0486   89.2635   11.0214 N.pl3   1  UNL1       -0.2978
     19 H          60.1699   89.4832   11.4070 H       1  UNL1        0.1536
     20 C          62.2327   90.1392   11.3060 C.ar    1  UNL1        0.0509
     21 C          62.8848   90.9041   10.1925 C.ar    1  UNL1        0.0153
     22 C          64.0689   91.7798   10.4771 C.ar    1  UNL1        0.0093
     23 C          64.6009   91.8907   11.8753 C.ar    1  UNL1        0.0486
     24 S          65.7447   92.6688   12.4551 S.2     1  UNL1       -0.0645
     25 C          65.7995   92.3849   13.9270 C.ar    1  UNL1        0.1345
     26 N          64.6896   91.4313   14.2567 N.ar    1  UNL1       -0.2362
     27 C          63.9488   91.1259   12.9887 C.ar    1  UNL1        0.0892
     28 C          62.7648   90.2501   12.7041 C.ar    1  UNL1        0.0343
     29 O          63.5778   83.0212   12.3955 O.3     1  UNL1       -0.4714
     30 C          62.6906   81.9914   13.0298 C.3     1  UNL1        0.2380
     31 C          62.7450   80.5661   12.5656 C.3     1  UNL1        0.2007
     32 O          62.8146   80.2570   11.0995 O.3     1  UNL1       -0.2694
     33 P          62.7370   78.8350   10.6283 P.3     1  UNL1        0.4732
     34 O          62.9444   79.2921    9.2147 O.2     1  UNL1       -0.2275
     35 O          62.5296   78.3779   12.0418 O.3     1  UNL1       -0.3026
     36 O          62.6594   77.4131   10.1571 O.3     1  UNL1       -0.3026
     37 H          62.5321   79.1464   12.6338 H       1  UNL1        0.2220
     38 H          62.7692   77.3852    9.1937 H       1  UNL1        0.2220
@<TRIPOS>BOND
     1    14    15    1
     2    15    16    1
     3    15    17    1
     4    15    11    1
     5    11    12    2
     6    11    13    2
     7    11     1    1
     8     1     2   ar
     9     2     3   ar
    10     3     4   ar
    11     4    18    1
    12    18    20    1
    13    20    21   ar
    14    21    22   ar
    15    22    23   ar
    16    23    24   ar
    17    24    25   ar
    18    25    26   ar
    19    26    27   ar
    20    27    28   ar
    21     4     5   ar
    22     5     6   ar
    23     6     7   ar
    24     7     8   ar
    25     8     9   ar
    26     9    10   ar
    27    10    29    1
    28    29    30    1
    29    30    31    1
    30    31    32    1
    31    32    33    1
    32    33    34    2
    33    33    35    1
    34    33    36    1
    35    10     1   ar
    36     8     3   ar
    37    28    20   ar
    38    27    23   ar
    39    18    19    1
    40    35    37    1
    41    36    38    1
@<TRIPOS>MOLECULE
*****
 38 41 0 0 0
SMALL
GASTEIGER

@<TRIPOS>ATOM
      1 C          59.5679   94.7353   -1.6014 C.ar    1  UNL1        0.1395
      2 C          61.0403   95.0202   -1.5708 C.ar    1  UNL1        0.0257
      3 C          61.9207   94.3135   -0.5831 C.ar    1  UNL1        0.0509
      4 C          63.3930   94.5984   -0.5525 C.ar    1  UNL1        0.1353
      5 N          64.2734   93.8917    0.4352 N.ar    1  UNL1       -0.2089
      6 C          63.6813   92.9002    1.3923 C.ar    1  UNL1        0.2000
      7 N          62.2089   92.6152    1.3618 N.ar    1  UNL1       -0.2238
      8 C          61.3286   93.3219    0.3741 C.ar    1  UNL1        0.0888
      9 C          59.8562   93.0370    0.3435 C.ar    1  UNL1        0.0575
     10 C          58.9759   93.7436   -0.6441 C.ar    1  UNL1        0.1571
     11 S          58.6876   95.4420   -2.5891 S.O2    1  UNL1        0.0083
     12 O          59.0680   94.4439   -3.6422 O.2     1  UNL1       -0.1686
     13 O          58.3072   96.4400   -1.5359 O.2     1  UNL1       -0.1686
     14 C          58.9003   96.0780   -4.6016 C.3     1  UNL1        0.0240
     15 C          57.8072   96.1487   -3.5768 C.3     1  UNL1        0.1152
     16 C          56.7141   96.2194   -2.5520 C.3     1  UNL1        0.0240
     17 C          56.9269   96.8554   -4.5645 C.3     1  UNL1        0.0240
     18 N          63.9851   95.5901   -1.5098 N.pl3   1  UNL1       -0.2978
     19 H          64.1104   96.5266   -1.2334 H       1  UNL1        0.1536
     20 C          64.3861   95.1547   -2.8880 C.ar    1  UNL1        0.0509
     21 C          65.0285   96.1329   -3.8264 C.ar    1  UNL1        0.0153
     22 C          65.4295   95.6976   -5.2046 C.ar    1  UNL1        0.0093
     23 C          65.1881   94.2839   -5.6446 C.ar    1  UNL1        0.0486
     24 S          65.4743   93.5710   -6.9329 S.2     1  UNL1       -0.0645
     25 C          65.0088   92.1522   -6.7908 C.ar    1  UNL1        0.1345
     26 N          64.4350   91.9882   -5.4146 N.ar    1  UNL1       -0.2362
     27 C          64.5458   93.3057   -4.7062 C.ar    1  UNL1        0.0892
     28 C          64.1448   93.7411   -3.3280 C.ar    1  UNL1        0.0343
     29 O          57.5035   93.4587   -0.6747 O.3     1  UNL1       -0.4714
     30 C          57.0052   92.1404   -1.1880 C.3     1  UNL1        0.2380
     31 C          56.0025   92.1002   -2.3029 C.3     1  UNL1        0.2007
     32 O          56.2967   92.7906   -3.6016 O.3     1  UNL1       -0.2694
     33 P          56.4962   91.9849   -4.8510 P.3     1  UNL1        0.4732
     34 O          55.9205   90.7808   -4.1664 O.2     1  UNL1       -0.2275
     35 O          57.0719   93.1890   -5.5356 O.3     1  UNL1       -0.3026
     36 O          56.6957   91.1791   -6.1004 O.3     1  UNL1       -0.3026
     37 H          57.0744   93.9398   -4.9214 H       1  UNL1        0.2220
     38 H          56.3876   90.2713   -5.9523 H       1  UNL1        0.2220
@<TRIPOS>BOND
     1    14    15    1
     2    15    16    1
     3    15    17    1
     4    15    11    1
     5    11    12    2
     6    11    13    2
     7    11     1    1
     8     1     2   ar
     9     2     3   ar
    10     3     4   ar
    11     4    18    1
    12    18    20    1
    13    20    21   ar
    14    21    22   ar
    15    22    23   ar
    16    23    24   ar
    17    24    25   ar
    18    25    26   ar
    19    26    27   ar
    20    27    28   ar
    21     4     5   ar
    22     5     6   ar
    23     6     7   ar
    24     7     8   ar
    25     8     9   ar
    26     9    10   ar
    27    10    29    1
    28    29    30    1
    29    30    31    1
    30    31    32    1
    31    32    33    1
    32    33    34    2
    33    33    35    1
    34    33    36    1
    35    10     1   ar
    36     8     3   ar
    37    28    20   ar
    38    27    23   ar
    39    18    19    1
    40    35    37    1
    41    36    38    1
