@<TRIPOS>MOLECULE
*****
 27 28 0 0 0
SMALL
GASTEIGER

@<TRIPOS>ATOM
      1 C          63.6211   90.7195   11.9863 C.ar    1  UNL1        0.0191
      2 C          63.0471   90.6839   10.6010 C.ar    1  UNL1        0.0063
      3 C          62.4359   89.4192   10.0746 C.ar    1  UNL1        0.0581
      4 C          62.3986   88.1902   10.9336 C.ar    1  UNL1        0.2297
      5 N          62.9726   88.2257   12.3190 N.ar    1  UNL1       -0.2098
      6 C          63.5838   89.4904   12.8453 C.ar    1  UNL1        0.1020
      7 C          65.5125   92.4996   11.9249 C.2     1  UNL1       -0.0069
      8 C          64.2323   91.9841   12.5127 C.2     1  UNL1       -0.0014
      9 C          66.1237   93.7643   12.4512 C.3     1  UNL1        0.0939
     10 C          66.3613   94.9230   11.5287 C.3     1  UNL1        0.0262
     11 C          67.9943   93.1466   15.8964 C.3     1  UNL1        0.0946
     12 C          67.6207   93.0406   14.4476 C.2     1  UNL1        0.2232
     13 O          68.3704   92.1049   13.5463 O.2     1  UNL1       -0.2751
     14 N          66.4973   93.8703   13.9001 N.am    1  UNL1       -0.3022
     15 H          66.0053   94.4844   14.4917 H       1  UNL1        0.1497
     16 O          61.7874   86.9255   10.4073 O.3     1  UNL1       -0.4352
     17 C          62.3456   85.5952   10.8179 C.ar    1  UNL1        0.1578
     18 C          62.1882   85.1200   12.2320 C.ar    1  UNL1        0.0415
     19 C          62.7464   83.7897   12.6426 C.ar    1  UNL1        0.0401
     20 C          63.4621   82.9346   11.6393 C.ar    1  UNL1        0.1397
     21 C          63.6195   83.4098   10.2253 C.ar    1  UNL1        0.0514
     22 C          63.0613   84.7401    9.8146 C.ar    1  UNL1        0.0952
     23 CL         63.2187   85.2154    8.4006 Cl      1  UNL1       -0.0790
     24 O          64.0204   81.6042   12.0500 O.3     1  UNL1       -0.4724
     25 C          63.6035   80.9854   13.3512 C.3     1  UNL1        0.2434
     26 C          62.2922   80.2643   13.4527 C.3     1  UNL1        0.2403
     27 F          61.0877   80.9716   13.9996 F       1  UNL1       -0.2302
@<TRIPOS>BOND
     1    11    12    1
     2    12    13    2
     3    12    14   am
     4    14     9    1
     5     9    10    1
     6     9     7    1
     7     7     8    2
     8     8     1    1
     9     1     2   ar
    10     2     3   ar
    11     3     4   ar
    12     4    16    1
    13    16    17    1
    14    17    18   ar
    15    18    19   ar
    16    19    20   ar
    17    20    24    1
    18    24    25    1
    19    25    26    1
    20    26    27    1
    21    20    21   ar
    22    21    22   ar
    23    22    23    1
    24     4     5   ar
    25     5     6   ar
    26     6     1   ar
    27    22    17   ar
    28    14    15    1
@<TRIPOS>MOLECULE
*****
 27 28 0 0 0
SMALL
GASTEIGER

@<TRIPOS>ATOM
      1 C          63.4990   90.6797   11.5563 C.ar    1  UNL1        0.0191
      2 C          62.7913   90.4264   10.2582 C.ar    1  UNL1        0.0063
      3 C          62.1619   89.0905    9.9954 C.ar    1  UNL1        0.0581
      4 C          62.2400   88.0079   11.0306 C.ar    1  UNL1        0.2297
      5 N          62.9476   88.2612   12.3287 N.ar    1  UNL1       -0.2098
      6 C          63.5771   89.5971   12.5915 C.ar    1  UNL1        0.1020
      7 C          65.1790   92.5457   10.8889 C.2     1  UNL1       -0.0069
      8 C          64.1285   92.0156   11.8191 C.2     1  UNL1       -0.0014
      9 C          65.8085   93.8816   11.1518 C.3     1  UNL1        0.0939
     10 C          66.3244   94.2112   12.5212 C.3     1  UNL1        0.0262
     11 C          67.3330   96.0570    8.2033 C.3     1  UNL1        0.0946
     12 C          67.2194   95.0507    9.3099 C.2     1  UNL1        0.2232
     13 O          68.4029   94.2073    9.6811 O.2     1  UNL1       -0.2751
     14 N          65.9222   94.8879   10.0452 N.am    1  UNL1       -0.3022
     15 H          65.1454   95.4414    9.8016 H       1  UNL1        0.1497
     16 O          61.6105   86.6720   10.7678 O.3     1  UNL1       -0.4352
     17 C          62.2880   85.4184   11.2363 C.ar    1  UNL1        0.1578
     18 C          62.1953   85.0090   12.6764 C.ar    1  UNL1        0.0415
     19 C          62.8728   83.7555   13.1449 C.ar    1  UNL1        0.0401
     20 C          63.6431   82.9113   12.1734 C.ar    1  UNL1        0.1397
     21 C          63.7358   83.3206   10.7333 C.ar    1  UNL1        0.0514
     22 C          63.0583   84.5742   10.2647 C.ar    1  UNL1        0.0952
     23 CL         63.1511   84.9835    8.8247 Cl      1  UNL1       -0.0790
     24 O          64.3206   81.6577   12.6420 O.3     1  UNL1       -0.4724
     25 C          63.6354   80.7583   13.6276 C.3     1  UNL1        0.2434
     26 C          62.2923   80.1748   13.3027 C.3     1  UNL1        0.2403
     27 F          61.0429   80.8699   13.7566 F       1  UNL1       -0.2302
@<TRIPOS>BOND
     1    11    12    1
     2    12    13    2
     3    12    14   am
     4    14     9    1
     5     9    10    1
     6     9     7    1
     7     7     8    2
     8     8     1    1
     9     1     2   ar
    10     2     3   ar
    11     3     4   ar
    12     4    16    1
    13    16    17    1
    14    17    18   ar
    15    18    19   ar
    16    19    20   ar
    17    20    24    1
    18    24    25    1
    19    25    26    1
    20    26    27    1
    21    20    21   ar
    22    21    22   ar
    23    22    23    1
    24     4     5   ar
    25     5     6   ar
    26     6     1   ar
    27    22    17   ar
    28    14    15    1
@<TRIPOS>MOLECULE
*****
 27 28 0 0 0
SMALL
GASTEIGER

@<TRIPOS>ATOM
      1 C          63.7208   86.5412   13.3709 C.ar    1  UNL1        0.0191
      2 C          64.3578   87.1626   14.5784 C.ar    1  UNL1        0.0063
      3 C          64.3577   88.6536   14.7428 C.ar    1  UNL1        0.0581
      4 C          63.7207   89.5231   13.6998 C.ar    1  UNL1        0.2297
      5 N          63.0837   88.9017   12.4923 N.ar    1  UNL1       -0.2098
      6 C          63.0837   87.4108   12.3279 C.ar    1  UNL1        0.1020
      7 C          63.1731   84.4339   11.9534 C.2     1  UNL1       -0.0069
      8 C          63.7209   85.0503   13.2064 C.2     1  UNL1       -0.0014
      9 C          63.1732   82.9429   11.7890 C.3     1  UNL1        0.0939
     10 C          64.3328   82.2617   11.1247 C.3     1  UNL1        0.0262
     11 C          60.8825   80.7484   14.1736 C.3     1  UNL1        0.0946
     12 C          62.0420   81.5581   13.6738 C.2     1  UNL1        0.2232
     13 O          63.2299   81.7928   14.5592 O.2     1  UNL1       -0.2751
     14 N          62.0136   82.1332   12.2888 N.am    1  UNL1       -0.3022
     15 H          61.2340   81.9792   11.7077 H       1  UNL1        0.1497
     16 O          63.7206   91.0141   13.8643 O.3     1  UNL1       -0.4352
     17 C          64.6377   91.8605   13.0322 C.ar    1  UNL1        0.1578
     18 C          64.4065   91.9885   11.5556 C.ar    1  UNL1        0.0415
     19 C          65.3236   92.8349   10.7234 C.ar    1  UNL1        0.0401
     20 C          66.4720   93.5533   11.3678 C.ar    1  UNL1        0.1397
     21 C          66.7032   93.4253   12.8443 C.ar    1  UNL1        0.0514
     22 C          65.7861   92.5788   13.6765 C.ar    1  UNL1        0.0952
     23 CL         66.0173   92.4508   15.1530 Cl      1  UNL1       -0.0790
     24 O          67.3891   94.3997   10.5356 O.3     1  UNL1       -0.4724
     25 C          67.9052   93.8819    9.2259 C.3     1  UNL1        0.2434
     26 C          68.7398   92.6361    9.1884 C.3     1  UNL1        0.2403
     27 F          68.1178   91.3069    9.4990 F       1  UNL1       -0.2302
@<TRIPOS>BOND
     1    11    12    1
     2    12    13    2
     3    12    14   am
     4    14     9    1
     5     9    10    1
     6     9     7    1
     7     7     8    2
     8     8     1    1
     9     1     2   ar
    10     2     3   ar
    11     3     4   ar
    12     4    16    1
    13    16    17    1
    14    17    18   ar
    15    18    19   ar
    16    19    20   ar
    17    20    24    1
    18    24    25    1
    19    25    26    1
    20    26    27    1
    21    20    21   ar
    22    21    22   ar
    23    22    23    1
    24     4     5   ar
    25     5     6   ar
    26     6     1   ar
    27    22    17   ar
    28    14    15    1
@<TRIPOS>MOLECULE
*****
 27 28 0 0 0
SMALL
GASTEIGER

@<TRIPOS>ATOM
      1 C          64.6122   91.4025   12.7097 C.ar    1  UNL1        0.0191
      2 C          65.5025   91.2480   13.9070 C.ar    1  UNL1        0.0063
      3 C          65.1359   90.2823   14.9946 C.ar    1  UNL1        0.0581
      4 C          63.8790   89.4710   14.8850 C.ar    1  UNL1        0.2297
      5 N          62.9888   89.6254   13.6877 N.ar    1  UNL1       -0.2098
      6 C          63.3554   90.5912   12.6001 C.ar    1  UNL1        0.1020
      7 C          65.9873   93.4469   11.8854 C.2     1  UNL1       -0.0069
      8 C          64.9788   92.3682   11.6221 C.2     1  UNL1       -0.0014
      9 C          66.3539   94.4126   10.7977 C.3     1  UNL1        0.0939
     10 C          66.0267   95.8690   10.9463 C.3     1  UNL1        0.0262
     11 C          68.7941   92.3680    8.4283 C.3     1  UNL1        0.0946
     12 C          68.1004   92.8586    9.6644 C.2     1  UNL1        0.2232
     13 O          68.4596   92.2858   11.0033 O.2     1  UNL1       -0.2751
     14 N          67.0475   93.9220    9.5616 N.am    1  UNL1       -0.3022
     15 H          66.8118   94.2980    8.6828 H       1  UNL1        0.1497
     16 O          63.5124   88.5053   15.9727 O.3     1  UNL1       -0.4352
     17 C          63.6151   87.0286   15.7304 C.ar    1  UNL1        0.1578
     18 C          64.2480   86.5175   14.4701 C.ar    1  UNL1        0.0415
     19 C          64.3507   85.0408   14.2279 C.ar    1  UNL1        0.0401
     20 C          63.8206   84.0751   15.2459 C.ar    1  UNL1        0.1397
     21 C          63.1877   84.5861   16.5062 C.ar    1  UNL1        0.0514
     22 C          63.0850   86.0629   16.7485 C.ar    1  UNL1        0.0952
     23 CL         62.4522   86.5739   18.0088 Cl      1  UNL1       -0.0790
     24 O          63.9233   82.5983   15.0037 O.3     1  UNL1       -0.4724
     25 C          63.2184   81.9795   13.8331 C.3     1  UNL1        0.2434
     26 C          62.0334   81.0877   14.0572 C.3     1  UNL1        0.2403
     27 F          61.9200   79.7899   13.3134 F       1  UNL1       -0.2302
@<TRIPOS>BOND
     1    11    12    1
     2    12    13    2
     3    12    14   am
     4    14     9    1
     5     9    10    1
     6     9     7    1
     7     7     8    2
     8     8     1    1
     9     1     2   ar
    10     2     3   ar
    11     3     4   ar
    12     4    16    1
    13    16    17    1
    14    17    18   ar
    15    18    19   ar
    16    19    20   ar
    17    20    24    1
    18    24    25    1
    19    25    26    1
    20    26    27    1
    21    20    21   ar
    22    21    22   ar
    23    22    23    1
    24     4     5   ar
    25     5     6   ar
    26     6     1   ar
    27    22    17   ar
    28    14    15    1
@<TRIPOS>MOLECULE
*****
 27 28 0 0 0
SMALL
GASTEIGER

@<TRIPOS>ATOM
      1 C          62.8419   86.6814   12.1387 C.ar    1  UNL1        0.0191
      2 C          63.7095   86.9366   13.3354 C.ar    1  UNL1        0.0063
      3 C          63.9700   88.3432   13.7867 C.ar    1  UNL1        0.0581
      4 C          63.3630   89.4946   13.0412 C.ar    1  UNL1        0.2297
      5 N          62.4955   89.2394   11.8445 N.ar    1  UNL1       -0.2098
      6 C          62.2349   87.8329   11.3932 C.ar    1  UNL1        0.1020
      7 C          63.5701   84.1913   12.0009 C.2     1  UNL1       -0.0069
      8 C          62.5814   85.2749   11.6874 C.2     1  UNL1       -0.0014
      9 C          63.3095   82.7847   11.5496 C.3     1  UNL1        0.0939
     10 C          64.1875   82.1564   10.5082 C.3     1  UNL1        0.0262
     11 C          61.1089   80.7468   14.1484 C.3     1  UNL1        0.0946
     12 C          62.2473   81.5251   13.5583 C.2     1  UNL1        0.2232
     13 O          63.4620   81.8220   14.3869 O.2     1  UNL1       -0.2751
     14 N          62.1711   82.0065   12.1397 N.am    1  UNL1       -0.3022
     15 H          61.3739   81.8116   11.5959 H       1  UNL1        0.1497
     16 O          63.6236   90.9012   13.4925 O.3     1  UNL1       -0.4352
     17 C          64.6038   91.7583   12.7480 C.ar    1  UNL1        0.1578
     18 C          64.4112   92.0188   11.2833 C.ar    1  UNL1        0.0415
     19 C          65.3914   92.8760   10.5387 C.ar    1  UNL1        0.0401
     20 C          66.5643   93.4726   11.2587 C.ar    1  UNL1        0.1397
     21 C          66.7569   93.2121   12.7233 C.ar    1  UNL1        0.0514
     22 C          65.7767   92.3550   13.4680 C.ar    1  UNL1        0.0952
     23 CL         65.9693   92.0945   14.9325 Cl      1  UNL1       -0.0790
     24 O          67.5445   94.3298   10.5141 O.3     1  UNL1       -0.4724
     25 C          67.1161   95.6611    9.9718 C.3     1  UNL1        0.2434
     26 C          66.0013   96.4165   10.6324 C.3     1  UNL1        0.2403
     27 F          66.0541   96.6954   12.1054 F       1  UNL1       -0.2302
@<TRIPOS>BOND
     1    11    12    1
     2    12    13    2
     3    12    14   am
     4    14     9    1
     5     9    10    1
     6     9     7    1
     7     7     8    2
     8     8     1    1
     9     1     2   ar
    10     2     3   ar
    11     3     4   ar
    12     4    16    1
    13    16    17    1
    14    17    18   ar
    15    18    19   ar
    16    19    20   ar
    17    20    24    1
    18    24    25    1
    19    25    26    1
    20    26    27    1
    21    20    21   ar
    22    21    22   ar
    23    22    23    1
    24     4     5   ar
    25     5     6   ar
    26     6     1   ar
    27    22    17   ar
    28    14    15    1
@<TRIPOS>MOLECULE
*****
 27 28 0 0 0
SMALL
GASTEIGER

@<TRIPOS>ATOM
      1 C          62.4643   86.3194   11.2599 C.ar    1  UNL1        0.0191
      2 C          61.9403   87.3073   10.2602 C.ar    1  UNL1        0.0063
      3 C          62.1172   88.7781   10.4957 C.ar    1  UNL1        0.0581
      4 C          62.8181   89.2610   11.7308 C.ar    1  UNL1        0.2297
      5 N          63.3422   88.2731   12.7304 N.ar    1  UNL1       -0.2098
      6 C          63.1653   86.8023   12.4950 C.ar    1  UNL1        0.1020
      7 C          63.2591   83.8719   11.6176 C.2     1  UNL1       -0.0069
      8 C          62.2875   84.8486   11.0244 C.2     1  UNL1       -0.0014
      9 C          63.0822   82.4011   11.3822 C.3     1  UNL1        0.0939
     10 C          63.9947   81.6778   10.4364 C.3     1  UNL1        0.0262
     11 C          61.0108   80.6447   14.2760 C.3     1  UNL1        0.0946
     12 C          62.1001   81.3923   13.5657 C.2     1  UNL1        0.2232
     13 O          63.2965   81.8787   14.3286 O.2     1  UNL1       -0.2751
     14 N          61.9930   81.6535   12.0925 N.am    1  UNL1       -0.3022
     15 H          61.2077   81.3342   11.5918 H       1  UNL1        0.1497
     16 O          62.9950   90.7318   11.9662 O.3     1  UNL1       -0.4352
     17 C          63.9250   91.2129   13.0403 C.ar    1  UNL1        0.1578
     18 C          63.6610   90.8604   14.4742 C.ar    1  UNL1        0.0415
     19 C          64.5909   91.3415   15.5483 C.ar    1  UNL1        0.0401
     20 C          65.7849   92.1751   15.1885 C.ar    1  UNL1        0.1397
     21 C          66.0489   92.5277   13.7546 C.ar    1  UNL1        0.0514
     22 C          65.1189   92.0466   12.6805 C.ar    1  UNL1        0.0952
     23 CL         65.3830   92.3991   11.2466 Cl      1  UNL1       -0.0790
     24 O          66.7149   92.6563   16.2626 O.3     1  UNL1       -0.4724
     25 C          68.1794   92.3419   16.1829 C.3     1  UNL1        0.2434
     26 C          69.1081   93.2733   15.4618 C.3     1  UNL1        0.2403
     27 F          69.6100   94.5103   16.1459 F       1  UNL1       -0.2302
@<TRIPOS>BOND
     1    11    12    1
     2    12    13    2
     3    12    14   am
     4    14     9    1
     5     9    10    1
     6     9     7    1
     7     7     8    2
     8     8     1    1
     9     1     2   ar
    10     2     3   ar
    11     3     4   ar
    12     4    16    1
    13    16    17    1
    14    17    18   ar
    15    18    19   ar
    16    19    20   ar
    17    20    24    1
    18    24    25    1
    19    25    26    1
    20    26    27    1
    21    20    21   ar
    22    21    22   ar
    23    22    23    1
    24     4     5   ar
    25     5     6   ar
    26     6     1   ar
    27    22    17   ar
    28    14    15    1
@<TRIPOS>MOLECULE
*****
 27 28 0 0 0
SMALL
GASTEIGER

@<TRIPOS>ATOM
      1 C          63.8923   86.0220   13.5202 C.ar    1  UNL1        0.0191
      2 C          64.4690   86.7723   14.6840 C.ar    1  UNL1        0.0063
      3 C          64.3610   88.2673   14.7403 C.ar    1  UNL1        0.0581
      4 C          63.6764   89.0121   13.6329 C.ar    1  UNL1        0.2297
      5 N          63.0997   88.2619   12.4691 N.ar    1  UNL1       -0.2098
      6 C          63.2077   86.7668   12.4127 C.ar    1  UNL1        0.1020
      7 C          63.1464   83.7489   12.5070 C.2     1  UNL1       -0.0069
      8 C          64.0003   84.5270   13.4638 C.2     1  UNL1       -0.0014
      9 C          63.2544   82.2539   12.4507 C.3     1  UNL1        0.0939
     10 C          63.4147   81.4652   13.7166 C.3     1  UNL1        0.0262
     11 C          62.8135   79.3803    9.7493 C.3     1  UNL1        0.0946
     12 C          62.8658   80.0867   11.0714 C.2     1  UNL1        0.2232
     13 O          62.5819   79.3324   12.3365 O.2     1  UNL1       -0.2751
     14 N          63.2020   81.5474   11.1285 N.am    1  UNL1       -0.3022
     15 H          63.3884   82.0425   10.2982 H       1  UNL1        0.1497
     16 O          63.5685   90.5072   13.6892 O.3     1  UNL1       -0.4352
     17 C          64.5586   91.3590   12.9517 C.ar    1  UNL1        0.1578
     18 C          65.7787   91.8725   13.6573 C.ar    1  UNL1        0.0415
     19 C          66.7689   92.7242   12.9198 C.ar    1  UNL1        0.0401
     20 C          66.5391   93.0625   11.4766 C.ar    1  UNL1        0.1397
     21 C          65.3191   92.5491   10.7710 C.ar    1  UNL1        0.0514
     22 C          64.3288   91.6973   11.5085 C.ar    1  UNL1        0.0952
     23 CL         63.1089   91.1838   10.8029 Cl      1  UNL1       -0.0790
     24 O          67.5293   93.9144   10.7391 O.3     1  UNL1       -0.4724
     25 C          67.6302   93.8243    9.2452 C.3     1  UNL1        0.2434
     26 C          67.2195   94.9893    8.3942 C.3     1  UNL1        0.2403
     27 F          67.8086   96.3459    8.6450 F       1  UNL1       -0.2302
@<TRIPOS>BOND
     1    11    12    1
     2    12    13    2
     3    12    14   am
     4    14     9    1
     5     9    10    1
     6     9     7    1
     7     7     8    2
     8     8     1    1
     9     1     2   ar
    10     2     3   ar
    11     3     4   ar
    12     4    16    1
    13    16    17    1
    14    17    18   ar
    15    18    19   ar
    16    19    20   ar
    17    20    24    1
    18    24    25    1
    19    25    26    1
    20    26    27    1
    21    20    21   ar
    22    21    22   ar
    23    22    23    1
    24     4     5   ar
    25     5     6   ar
    26     6     1   ar
    27    22    17   ar
    28    14    15    1
@<TRIPOS>MOLECULE
*****
 27 28 0 0 0
SMALL
GASTEIGER

@<TRIPOS>ATOM
      1 C          63.8116   86.3904   13.6045 C.ar    1  UNL1        0.0191
      2 C          64.3935   87.1442   14.7634 C.ar    1  UNL1        0.0063
      3 C          64.3448   88.6433   14.7836 C.ar    1  UNL1        0.0581
      4 C          63.7141   89.3885   13.6448 C.ar    1  UNL1        0.2297
      5 N          63.1322   88.6347   12.4859 N.ar    1  UNL1       -0.2098
      6 C          63.1810   87.1357   12.4657 C.ar    1  UNL1        0.1020
      7 C          62.5868   84.1000   13.5455 C.2     1  UNL1       -0.0069
      8 C          63.8604   84.8913   13.5843 C.2     1  UNL1       -0.0014
      9 C          62.6355   82.6009   13.5254 C.3     1  UNL1        0.0939
     10 C          62.9669   81.8444   14.7776 C.3     1  UNL1        0.0262
     11 C          63.1464   80.9624    9.9471 C.3     1  UNL1        0.0946
     12 C          63.4290   81.7050   11.2194 C.2     1  UNL1        0.2232
     13 O          64.7876   82.2941   11.4579 O.2     1  UNL1       -0.2751
     14 N          62.3530   81.8583   12.2531 N.am    1  UNL1       -0.3022
     15 H          61.4612   81.4716   12.0965 H       1  UNL1        0.1497
     16 O          63.6654   90.8876   13.6650 O.3     1  UNL1       -0.4352
     17 C          64.6152   91.6804   12.8168 C.ar    1  UNL1        0.1578
     18 C          64.3374   91.8681   11.3547 C.ar    1  UNL1        0.0415
     19 C          65.2872   92.6609   10.5066 C.ar    1  UNL1        0.0401
     20 C          66.5148   93.2659   11.1205 C.ar    1  UNL1        0.1397
     21 C          66.7926   93.0782   12.5826 C.ar    1  UNL1        0.0514
     22 C          65.8428   92.2854   13.4308 C.ar    1  UNL1        0.0952
     23 CL         66.1206   92.0978   14.8928 Cl      1  UNL1       -0.0790
     24 O          67.4647   94.0587   10.2723 O.3     1  UNL1       -0.4724
     25 C          67.2700   95.5371   10.1099 C.3     1  UNL1        0.2434
     26 C          66.1441   96.0571    9.2661 C.3     1  UNL1        0.2403
     27 F          64.7635   96.1663    9.8424 F       1  UNL1       -0.2302
@<TRIPOS>BOND
     1    11    12    1
     2    12    13    2
     3    12    14   am
     4    14     9    1
     5     9    10    1
     6     9     7    1
     7     7     8    2
     8     8     1    1
     9     1     2   ar
    10     2     3   ar
    11     3     4   ar
    12     4    16    1
    13    16    17    1
    14    17    18   ar
    15    18    19   ar
    16    19    20   ar
    17    20    24    1
    18    24    25    1
    19    25    26    1
    20    26    27    1
    21    20    21   ar
    22    21    22   ar
    23    22    23    1
    24     4     5   ar
    25     5     6   ar
    26     6     1   ar
    27    22    17   ar
    28    14    15    1
@<TRIPOS>MOLECULE
*****
 27 28 0 0 0
SMALL
GASTEIGER

@<TRIPOS>ATOM
      1 C          64.1249   89.9411   15.1731 C.ar    1  UNL1        0.0191
      2 C          63.4639   89.6973   16.4972 C.ar    1  UNL1        0.0063
      3 C          63.0883   88.3028   16.9025 C.ar    1  UNL1        0.0581
      4 C          63.3737   87.1521   15.9837 C.ar    1  UNL1        0.2297
      5 N          64.0348   87.3959   14.6595 N.ar    1  UNL1       -0.2098
      6 C          64.4104   88.7904   14.2542 C.ar    1  UNL1        0.1020
      7 C          65.7763   91.5808   14.0179 C.2     1  UNL1       -0.0069
      8 C          64.5006   91.3356   14.7678 C.2     1  UNL1       -0.0014
      9 C          66.1519   92.9753   13.6126 C.3     1  UNL1        0.0939
     10 C          66.8186   93.8889   14.5980 C.3     1  UNL1        0.0262
     11 C          66.5169   93.6168    9.7133 C.3     1  UNL1        0.0946
     12 C          66.8080   93.1358   11.1039 C.2     1  UNL1        0.2232
     13 O          68.0463   92.3344   11.3764 O.2     1  UNL1       -0.2751
     14 N          65.8608   93.4563   12.2220 N.am    1  UNL1       -0.3022
     15 H          65.0481   93.9823   12.0431 H       1  UNL1        0.1497
     16 O          62.9981   85.7576   16.3890 O.3     1  UNL1       -0.4352
     17 C          63.0970   84.6361   15.3978 C.ar    1  UNL1        0.1578
     18 C          61.8835   83.8193   15.0659 C.ar    1  UNL1        0.0415
     19 C          61.9824   82.6978   14.0747 C.ar    1  UNL1        0.0401
     20 C          63.2948   82.3932   13.4153 C.ar    1  UNL1        0.1397
     21 C          64.5083   83.2099   13.7472 C.ar    1  UNL1        0.0514
     22 C          64.4094   84.3315   14.7384 C.ar    1  UNL1        0.0952
     23 CL         65.6230   85.1483   15.0703 Cl      1  UNL1       -0.0790
     24 O          63.3936   81.2716   12.4241 O.3     1  UNL1       -0.4724
     25 C          63.2665   81.5544   10.9565 C.3     1  UNL1        0.2434
     26 C          64.2032   82.5215   10.2952 C.3     1  UNL1        0.2403
     27 F          63.6818   83.8196    9.7538 F       1  UNL1       -0.2302
@<TRIPOS>BOND
     1    11    12    1
     2    12    13    2
     3    12    14   am
     4    14     9    1
     5     9    10    1
     6     9     7    1
     7     7     8    2
     8     8     1    1
     9     1     2   ar
    10     2     3   ar
    11     3     4   ar
    12     4    16    1
    13    16    17    1
    14    17    18   ar
    15    18    19   ar
    16    19    20   ar
    17    20    24    1
    18    24    25    1
    19    25    26    1
    20    26    27    1
    21    20    21   ar
    22    21    22   ar
    23    22    23    1
    24     4     5   ar
    25     5     6   ar
    26     6     1   ar
    27    22    17   ar
    28    14    15    1
