@<TRIPOS>MOLECULE
*****
 26 28 0 0 0
SMALL
GASTEIGER

@<TRIPOS>ATOM
      1 C          65.0259   92.0531   12.8502 C.ar    1  UNL1        0.1453
      2 C          65.7441   91.7198   14.1243 C.ar    1  UNL1        0.0376
      3 C          65.3858   90.4772   14.8842 C.ar    1  UNL1        0.0076
      4 C          64.3094   89.5678   14.3701 C.ar    1  UNL1        0.0536
      5 C          63.5912   89.9011   13.0961 C.ar    1  UNL1        0.0076
      6 C          63.9495   91.1437   12.3361 C.ar    1  UNL1        0.0376
      7 C          63.9511   88.3252   15.1300 C.2     1  UNL1        0.2461
      8 O          63.2005   88.4280   16.4246 O.2     1  UNL1       -0.2701
      9 N          64.3434   86.9797   14.5953 N.am    1  UNL1       -0.2969
     10 H          64.8360   86.9122   13.7456 H       1  UNL1        0.1501
     11 C          63.9851   85.7371   15.3552 C.3     1  UNL1        0.1181
     12 C          63.8495   84.4294   14.6332 C.ar    1  UNL1        0.0166
     13 C          64.4855   84.2464   13.2871 C.ar    1  UNL1        0.0005
     14 C          64.3498   82.9386   12.5650 C.ar    1  UNL1        0.0204
     15 C          63.5781   81.8138   13.1891 C.ar    1  UNL1        0.0989
     16 N          62.9421   81.9968   14.5352 N.ar    1  UNL1       -0.2426
     17 C          63.0778   83.3046   15.2572 C.ar    1  UNL1        0.0962
     18 O          65.3842   93.2957   12.0903 O.3     1  UNL1       -0.4528
     19 C          66.6448   94.4177   10.1149 C.ar    1  UNL1        0.1029
     20 C          67.7074   94.3698    9.0574 C.ar    1  UNL1        0.0134
     21 C          68.5722   93.1522    8.9176 C.ar    1  UNL1        0.0009
     22 C          68.3743   91.9824    9.8354 C.ar    1  UNL1        0.0032
     23 C          67.3116   92.0302   10.8929 C.ar    1  UNL1        0.0382
     24 C          66.4469   93.2479   11.0327 C.ar    1  UNL1        0.1548
     25 N          64.9153   96.8530   10.3945 N.1     1  UNL1       -0.1907
     26 C          65.7801   95.6353   10.2547 C.1     1  UNL1        0.1035
@<TRIPOS>BOND
     1    25    26    3
     2    26    19    1
     3    19    20   ar
     4    20    21   ar
     5    21    22   ar
     6    22    23   ar
     7    23    24   ar
     8    24    18    1
     9    18     1    1
    10     1     2   ar
    11     2     3   ar
    12     3     4   ar
    13     4     7    1
    14     7     8    2
    15     7     9   am
    16     9    11    1
    17    11    12    1
    18    12    13   ar
    19    13    14   ar
    20    14    15   ar
    21    15    16   ar
    22    16    17   ar
    23     4     5   ar
    24     5     6   ar
    25    24    19   ar
    26     6     1   ar
    27    17    12   ar
    28     9    10    1
@<TRIPOS>MOLECULE
*****
 26 28 0 0 0
SMALL
GASTEIGER

@<TRIPOS>ATOM
      1 C          64.0945   91.0960   12.9008 C.ar    1  UNL1        0.1453
      2 C          63.3829   91.0227   11.5823 C.ar    1  UNL1        0.0376
      3 C          62.8144   89.7180   11.1085 C.ar    1  UNL1        0.0076
      4 C          62.9575   88.4866   11.9530 C.ar    1  UNL1        0.0536
      5 C          63.6690   88.5600   13.2714 C.ar    1  UNL1        0.0076
      6 C          64.2376   89.8647   13.7454 C.ar    1  UNL1        0.0376
      7 C          62.3890   87.1820   11.4792 C.2     1  UNL1        0.2461
      8 O          61.2826   87.1696   10.4664 O.2     1  UNL1       -0.2701
      9 N          62.9268   85.8895   12.0181 N.am    1  UNL1       -0.2969
     10 H          63.6530   85.8976   12.6829 H       1  UNL1        0.1501
     11 C          62.3583   84.5849   11.5443 C.3     1  UNL1        0.1181
     12 C          62.6064   83.3300   12.3277 C.ar    1  UNL1        0.0166
     13 C          62.6722   82.0071   11.6238 C.ar    1  UNL1        0.0005
     14 C          62.9203   80.7522   12.4073 C.ar    1  UNL1        0.0204
     15 C          63.1025   80.8203   13.8946 C.ar    1  UNL1        0.0989
     16 N          63.0367   82.1433   14.5985 N.ar    1  UNL1       -0.2426
     17 C          62.7886   83.3981   13.8151 C.ar    1  UNL1        0.0962
     18 O          64.6630   92.4007   13.3747 O.3     1  UNL1       -0.4528
     19 C          67.2611   92.3934   13.3707 C.ar    1  UNL1        0.1029
     20 C          68.5613   92.4176   14.1183 C.ar    1  UNL1        0.0134
     21 C          68.5637   92.4733   15.6172 C.ar    1  UNL1        0.0009
     22 C          67.2660   92.5048   16.3687 C.ar    1  UNL1        0.0032
     23 C          65.9658   92.4806   15.6211 C.ar    1  UNL1        0.0382
     24 C          65.9633   92.4249   14.1222 C.ar    1  UNL1        0.1548
     25 N          67.2563   92.2820   10.3728 N.1     1  UNL1       -0.1907
     26 C          67.2587   92.3377   11.8718 C.1     1  UNL1        0.1035
@<TRIPOS>BOND
     1    25    26    3
     2    26    19    1
     3    19    20   ar
     4    20    21   ar
     5    21    22   ar
     6    22    23   ar
     7    23    24   ar
     8    24    18    1
     9    18     1    1
    10     1     2   ar
    11     2     3   ar
    12     3     4   ar
    13     4     7    1
    14     7     8    2
    15     7     9   am
    16     9    11    1
    17    11    12    1
    18    12    13   ar
    19    13    14   ar
    20    14    15   ar
    21    15    16   ar
    22    16    17   ar
    23     4     5   ar
    24     5     6   ar
    25    24    19   ar
    26     6     1   ar
    27    17    12   ar
    28     9    10    1
@<TRIPOS>MOLECULE
*****
 26 28 0 0 0
SMALL
GASTEIGER

@<TRIPOS>ATOM
      1 C          64.2312   90.4552   15.1470 C.ar    1  UNL1        0.1453
      2 C          64.6239   89.3023   14.2714 C.ar    1  UNL1        0.0376
      3 C          64.2388   87.9042   14.6547 C.ar    1  UNL1        0.0076
      4 C          63.4609   87.6590   15.9136 C.ar    1  UNL1        0.0536
      5 C          63.0681   88.8118   16.7891 C.ar    1  UNL1        0.0076
      6 C          63.4533   90.2100   16.4058 C.ar    1  UNL1        0.0376
      7 C          63.0757   86.2609   16.2969 C.2     1  UNL1        0.2461
      8 O          62.6754   85.9538   17.7095 O.2     1  UNL1       -0.2701
      9 N          63.0909   85.1698   15.2675 N.am    1  UNL1       -0.2969
     10 H          63.3536   85.3714   14.3404 H       1  UNL1        0.1501
     11 C          62.7057   83.7717   15.6508 C.3     1  UNL1        0.1181
     12 C          62.7324   82.6783   14.6244 C.ar    1  UNL1        0.0166
     13 C          61.6046   81.6922   14.5494 C.ar    1  UNL1        0.0005
     14 C          61.6314   80.5988   13.5229 C.ar    1  UNL1        0.0204
     15 C          62.7859   80.4915   12.5713 C.ar    1  UNL1        0.0989
     16 N          63.9137   81.4777   12.6462 N.ar    1  UNL1       -0.2426
     17 C          63.8870   82.5710   13.6727 C.ar    1  UNL1        0.0962
     18 O          64.6163   91.8533   14.7637 O.3     1  UNL1       -0.4528
     19 C          66.8299   92.2775   13.4712 C.ar    1  UNL1        0.1029
     20 C          67.5533   92.5293   12.1816 C.ar    1  UNL1        0.0134
     21 C          66.7867   92.6087   10.8947 C.ar    1  UNL1        0.0009
     22 C          65.2967   92.4362   10.8975 C.ar    1  UNL1        0.0032
     23 C          64.5732   92.1845   12.1871 C.ar    1  UNL1        0.0382
     24 C          65.3398   92.1051   13.4740 C.ar    1  UNL1        0.1548
     25 N          68.3631   92.1188   16.0450 N.1     1  UNL1       -0.1907
     26 C          67.5965   92.1982   14.7581 C.1     1  UNL1        0.1035
@<TRIPOS>BOND
     1    25    26    3
     2    26    19    1
     3    19    20   ar
     4    20    21   ar
     5    21    22   ar
     6    22    23   ar
     7    23    24   ar
     8    24    18    1
     9    18     1    1
    10     1     2   ar
    11     2     3   ar
    12     3     4   ar
    13     4     7    1
    14     7     8    2
    15     7     9   am
    16     9    11    1
    17    11    12    1
    18    12    13   ar
    19    13    14   ar
    20    14    15   ar
    21    15    16   ar
    22    16    17   ar
    23     4     5   ar
    24     5     6   ar
    25    24    19   ar
    26     6     1   ar
    27    17    12   ar
    28     9    10    1
@<TRIPOS>MOLECULE
*****
 26 28 0 0 0
SMALL
GASTEIGER

@<TRIPOS>ATOM
      1 C          64.3036   91.8612   11.5996 C.ar    1  UNL1        0.1453
      2 C          63.5471   91.4375   10.3755 C.ar    1  UNL1        0.0376
      3 C          62.7725   90.1531   10.3796 C.ar    1  UNL1        0.0076
      4 C          62.7542   89.2922   11.6078 C.ar    1  UNL1        0.0536
      5 C          63.5106   89.7158   12.8319 C.ar    1  UNL1        0.0076
      6 C          64.2853   91.0003   12.8278 C.ar    1  UNL1        0.0376
      7 C          61.9796   88.0077   11.6120 C.2     1  UNL1        0.2461
      8 O          60.4813   88.0353   11.5452 O.2     1  UNL1       -0.2701
      9 N          62.7032   86.6957   11.6829 N.am    1  UNL1       -0.2969
     10 H          63.6866   86.6776   11.7267 H       1  UNL1        0.1501
     11 C          61.9286   85.4112   11.6871 C.3     1  UNL1        0.1181
     12 C          62.5911   84.1373   12.1206 C.ar    1  UNL1        0.0166
     13 C          63.3003   83.2805   11.1141 C.ar    1  UNL1        0.0005
     14 C          63.9629   82.0065   11.5478 C.ar    1  UNL1        0.0204
     15 C          63.9162   81.5893   12.9878 C.ar    1  UNL1        0.0989
     16 N          63.2070   82.4460   13.9943 N.ar    1  UNL1       -0.2426
     17 C          62.5445   83.7200   13.5607 C.ar    1  UNL1        0.0962
     18 O          65.0782   93.1456   11.5954 O.3     1  UNL1       -0.4528
     19 C          66.5358   94.5732    9.9868 C.ar    1  UNL1        0.1029
     20 C          67.7460   94.7162    9.1123 C.ar    1  UNL1        0.0134
     21 C          68.7091   93.5748    8.9721 C.ar    1  UNL1        0.0009
     22 C          68.4619   92.2904    9.7062 C.ar    1  UNL1        0.0032
     23 C          67.2517   92.1473   10.5807 C.ar    1  UNL1        0.0382
     24 C          66.2886   93.2887   10.7209 C.ar    1  UNL1        0.1548
     25 N          64.6096   96.8559   10.2673 N.1     1  UNL1       -0.1907
     26 C          65.5727   95.7145   10.1270 C.1     1  UNL1        0.1035
@<TRIPOS>BOND
     1    25    26    3
     2    26    19    1
     3    19    20   ar
     4    20    21   ar
     5    21    22   ar
     6    22    23   ar
     7    23    24   ar
     8    24    18    1
     9    18     1    1
    10     1     2   ar
    11     2     3   ar
    12     3     4   ar
    13     4     7    1
    14     7     8    2
    15     7     9   am
    16     9    11    1
    17    11    12    1
    18    12    13   ar
    19    13    14   ar
    20    14    15   ar
    21    15    16   ar
    22    16    17   ar
    23     4     5   ar
    24     5     6   ar
    25    24    19   ar
    26     6     1   ar
    27    17    12   ar
    28     9    10    1
@<TRIPOS>MOLECULE
*****
 26 28 0 0 0
SMALL
GASTEIGER

@<TRIPOS>ATOM
      1 C          62.5848   87.6222   12.1055 C.ar    1  UNL1        0.1453
      2 C          63.4901   87.7341   13.2963 C.ar    1  UNL1        0.0376
      3 C          64.1851   89.0303   13.5909 C.ar    1  UNL1        0.0076
      4 C          63.9748   90.2147   12.6947 C.ar    1  UNL1        0.0536
      5 C          63.0695   90.1028   11.5040 C.ar    1  UNL1        0.0076
      6 C          62.3744   88.8066   11.2094 C.ar    1  UNL1        0.0376
      7 C          64.6698   91.5109   12.9893 C.2     1  UNL1        0.2461
      8 O          64.7185   92.0333   14.3945 O.2     1  UNL1       -0.2701
      9 N          65.3160   92.2847   11.8786 N.am    1  UNL1       -0.2969
     10 H          65.2840   91.9419   10.9563 H       1  UNL1        0.1501
     11 C          66.0110   93.5809   12.1732 C.3     1  UNL1        0.1181
     12 C          66.4160   94.4872   11.0486 C.ar    1  UNL1        0.0166
     13 C          67.1618   93.9337    9.8708 C.ar    1  UNL1        0.0005
     14 C          67.5668   94.8401    8.7462 C.ar    1  UNL1        0.0204
     15 C          67.2259   96.2998    8.7995 C.ar    1  UNL1        0.0989
     16 N          66.4801   96.8533    9.9774 N.ar    1  UNL1       -0.2426
     17 C          66.0751   95.9470   11.1019 C.ar    1  UNL1        0.0962
     18 O          61.8898   86.3260   11.8110 O.3     1  UNL1       -0.4528
     19 C          63.0701   84.1391   12.5689 C.ar    1  UNL1        0.1029
     20 C          63.8730   82.9154   12.2406 C.ar    1  UNL1        0.0134
     21 C          64.2984   82.6547   10.8260 C.ar    1  UNL1        0.0009
     22 C          63.9209   83.6178    9.7397 C.ar    1  UNL1        0.0032
     23 C          63.1181   84.8415   10.0681 C.ar    1  UNL1        0.0382
     24 C          62.6927   85.1022   11.4827 C.ar    1  UNL1        0.1548
     25 N          62.2193   84.6605   15.3981 N.1     1  UNL1       -0.1907
     26 C          62.6447   84.3998   13.9835 C.1     1  UNL1        0.1035
@<TRIPOS>BOND
     1    25    26    3
     2    26    19    1
     3    19    20   ar
     4    20    21   ar
     5    21    22   ar
     6    22    23   ar
     7    23    24   ar
     8    24    18    1
     9    18     1    1
    10     1     2   ar
    11     2     3   ar
    12     3     4   ar
    13     4     7    1
    14     7     8    2
    15     7     9   am
    16     9    11    1
    17    11    12    1
    18    12    13   ar
    19    13    14   ar
    20    14    15   ar
    21    15    16   ar
    22    16    17   ar
    23     4     5   ar
    24     5     6   ar
    25    24    19   ar
    26     6     1   ar
    27    17    12   ar
    28     9    10    1
@<TRIPOS>MOLECULE
*****
 26 28 0 0 0
SMALL
GASTEIGER

@<TRIPOS>ATOM
      1 C          62.6816   85.2103   10.3868 C.ar    1  UNL1        0.1453
      2 C          61.6468   86.0316   11.0973 C.ar    1  UNL1        0.0376
      3 C          60.6037   86.7680   10.3103 C.ar    1  UNL1        0.0076
      4 C          60.5952   86.6832    8.8127 C.ar    1  UNL1        0.0536
      5 C          61.6299   85.8620    8.1022 C.ar    1  UNL1        0.0076
      6 C          62.6732   85.1255    8.8892 C.ar    1  UNL1        0.0376
      7 C          59.5521   87.4196    8.0257 C.2     1  UNL1        0.2461
      8 O          58.2241   86.7768    7.7550 O.2     1  UNL1       -0.2701
      9 N          59.8369   88.7989    7.5094 N.am    1  UNL1       -0.2969
     10 H          60.7085   89.2208    7.6871 H       1  UNL1        0.1501
     11 C          58.7937   89.5353    6.7223 C.3     1  UNL1        0.1181
     12 C          59.2053   90.5463    5.6935 C.ar    1  UNL1        0.0166
     13 C          60.6416   90.6464    5.2729 C.ar    1  UNL1        0.0005
     14 C          61.0531   91.6574    4.2440 C.ar    1  UNL1        0.0204
     15 C          60.0283   92.5684    3.6359 C.ar    1  UNL1        0.0989
     16 N          58.5920   92.4684    4.0566 N.ar    1  UNL1       -0.2426
     17 C          58.1804   91.4574    5.0853 C.ar    1  UNL1        0.0962
     18 O          63.7248   84.4739   11.1738 O.3     1  UNL1       -0.4528
     19 C          63.2282   83.6017   13.5702 C.ar    1  UNL1        0.1029
     20 C          62.8260   82.4867   14.4894 C.ar    1  UNL1        0.0134
     21 C          62.5181   81.1288   13.9314 C.ar    1  UNL1        0.0009
     22 C          62.6124   80.8859   12.4542 C.ar    1  UNL1        0.0032
     23 C          63.0146   82.0010   11.5351 C.ar    1  UNL1        0.0382
     24 C          63.3225   83.3588   12.0931 C.ar    1  UNL1        0.1548
     25 N          63.8440   86.3175   14.6863 N.1     1  UNL1       -0.1907
     26 C          63.5361   84.9596   14.1282 C.1     1  UNL1        0.1035
@<TRIPOS>BOND
     1    25    26    3
     2    26    19    1
     3    19    20   ar
     4    20    21   ar
     5    21    22   ar
     6    22    23   ar
     7    23    24   ar
     8    24    18    1
     9    18     1    1
    10     1     2   ar
    11     2     3   ar
    12     3     4   ar
    13     4     7    1
    14     7     8    2
    15     7     9   am
    16     9    11    1
    17    11    12    1
    18    12    13   ar
    19    13    14   ar
    20    14    15   ar
    21    15    16   ar
    22    16    17   ar
    23     4     5   ar
    24     5     6   ar
    25    24    19   ar
    26     6     1   ar
    27    17    12   ar
    28     9    10    1
@<TRIPOS>MOLECULE
*****
 26 28 0 0 0
SMALL
GASTEIGER

@<TRIPOS>ATOM
      1 C          61.8671   87.9364   10.8843 C.ar    1  UNL1        0.1453
      2 C          62.7141   87.7842   12.1130 C.ar    1  UNL1        0.0376
      3 C          63.5167   88.9459   12.6193 C.ar    1  UNL1        0.0076
      4 C          63.4724   90.2598   11.8969 C.ar    1  UNL1        0.0536
      5 C          62.6255   90.4120   10.6683 C.ar    1  UNL1        0.0076
      6 C          61.8228   89.2503   10.1620 C.ar    1  UNL1        0.0376
      7 C          64.2750   91.4214   12.4032 C.2     1  UNL1        0.2461
      8 O          64.1033   91.8923   13.8169 O.2     1  UNL1       -0.2701
      9 N          65.2494   92.1122   11.4957 N.am    1  UNL1       -0.2969
     10 H          65.3621   91.8031   10.5678 H       1  UNL1        0.1501
     11 C          66.0520   93.2738   12.0019 C.3     1  UNL1        0.1181
     12 C          66.4957   94.3486   11.0543 C.ar    1  UNL1        0.0166
     13 C          67.2934   93.9912    9.8353 C.ar    1  UNL1        0.0005
     14 C          67.7372   95.0660    8.8877 C.ar    1  UNL1        0.0204
     15 C          67.3833   96.4981    9.1591 C.ar    1  UNL1        0.0989
     16 N          66.5856   96.8555   10.3782 N.ar    1  UNL1       -0.2426
     17 C          66.1418   95.7808   11.3257 C.ar    1  UNL1        0.0962
     18 O          61.0645   86.7748   10.3780 O.3     1  UNL1       -0.4528
     19 C          60.7399   86.0981    7.8907 C.ar    1  UNL1        0.1029
     20 C          61.1985   85.3404    6.6801 C.ar    1  UNL1        0.0134
     21 C          62.4404   84.5017    6.7463 C.ar    1  UNL1        0.0009
     22 C          63.2236   84.4207    8.0229 C.ar    1  UNL1        0.0032
     23 C          62.7650   85.1784    9.2335 C.ar    1  UNL1        0.0382
     24 C          61.5231   86.0171    9.1674 C.ar    1  UNL1        0.1548
     25 N          58.2562   87.7755    7.7585 N.1     1  UNL1       -0.1907
     26 C          59.4981   86.9368    7.8246 C.1     1  UNL1        0.1035
@<TRIPOS>BOND
     1    25    26    3
     2    26    19    1
     3    19    20   ar
     4    20    21   ar
     5    21    22   ar
     6    22    23   ar
     7    23    24   ar
     8    24    18    1
     9    18     1    1
    10     1     2   ar
    11     2     3   ar
    12     3     4   ar
    13     4     7    1
    14     7     8    2
    15     7     9   am
    16     9    11    1
    17    11    12    1
    18    12    13   ar
    19    13    14   ar
    20    14    15   ar
    21    15    16   ar
    22    16    17   ar
    23     4     5   ar
    24     5     6   ar
    25    24    19   ar
    26     6     1   ar
    27    17    12   ar
    28     9    10    1
@<TRIPOS>MOLECULE
*****
 26 28 0 0 0
SMALL
GASTEIGER

@<TRIPOS>ATOM
      1 C          61.7948   88.0436   10.9363 C.ar    1  UNL1        0.1453
      2 C          62.6803   87.8117   12.1248 C.ar    1  UNL1        0.0376
      3 C          63.4962   88.9395   12.6837 C.ar    1  UNL1        0.0076
      4 C          63.4267   90.2992   12.0542 C.ar    1  UNL1        0.0536
      5 C          62.5413   90.5312   10.8659 C.ar    1  UNL1        0.0076
      6 C          61.7253   89.4034   10.3069 C.ar    1  UNL1        0.0376
      7 C          64.2425   91.4270   12.6131 C.2     1  UNL1        0.2461
      8 O          64.2621   91.6775   14.0919 O.2     1  UNL1       -0.2701
      9 N          65.0388   92.3044   11.6932 N.am    1  UNL1       -0.2969
     10 H          65.0260   92.1400   10.7226 H       1  UNL1        0.1501
     11 C          65.8547   93.4322   12.2521 C.3     1  UNL1        0.1181
     12 C          66.8952   93.1589   13.2974 C.ar    1  UNL1        0.0166
     13 C          66.8201   93.8467   14.6283 C.ar    1  UNL1        0.0005
     14 C          67.8607   93.5733   15.6736 C.ar    1  UNL1        0.0204
     15 C          68.9763   92.6122   15.3879 C.ar    1  UNL1        0.0989
     16 N          69.0514   91.9244   14.0570 N.ar    1  UNL1       -0.2426
     17 C          68.0109   92.1977   13.0118 C.ar    1  UNL1        0.0962
     18 O          60.9790   86.9159   10.3774 O.3     1  UNL1       -0.4528
     19 C          60.7839   86.0747    7.9270 C.ar    1  UNL1        0.1029
     20 C          61.3163   85.2564    6.7882 C.ar    1  UNL1        0.0134
     21 C          62.5762   84.4609    6.9610 C.ar    1  UNL1        0.0009
     22 C          63.3037   84.4838    8.2726 C.ar    1  UNL1        0.0032
     23 C          62.7713   85.3021    9.4113 C.ar    1  UNL1        0.0382
     24 C          61.5114   86.0975    9.2386 C.ar    1  UNL1        0.1548
     25 N          58.2641   87.6657    7.5815 N.1     1  UNL1       -0.1907
     26 C          59.5240   86.8702    7.7542 C.1     1  UNL1        0.1035
@<TRIPOS>BOND
     1    25    26    3
     2    26    19    1
     3    19    20   ar
     4    20    21   ar
     5    21    22   ar
     6    22    23   ar
     7    23    24   ar
     8    24    18    1
     9    18     1    1
    10     1     2   ar
    11     2     3   ar
    12     3     4   ar
    13     4     7    1
    14     7     8    2
    15     7     9   am
    16     9    11    1
    17    11    12    1
    18    12    13   ar
    19    13    14   ar
    20    14    15   ar
    21    15    16   ar
    22    16    17   ar
    23     4     5   ar
    24     5     6   ar
    25    24    19   ar
    26     6     1   ar
    27    17    12   ar
    28     9    10    1
@<TRIPOS>MOLECULE
*****
 26 28 0 0 0
SMALL
GASTEIGER

@<TRIPOS>ATOM
      1 C          63.4375   85.0552   14.5096 C.ar    1  UNL1        0.1453
      2 C          63.4992   85.9445   13.3032 C.ar    1  UNL1        0.0376
      3 C          63.7294   87.4175   13.4682 C.ar    1  UNL1        0.0076
      4 C          63.8980   88.0012   14.8396 C.ar    1  UNL1        0.0536
      5 C          63.8364   87.1120   16.0460 C.ar    1  UNL1        0.0076
      6 C          63.6061   85.6389   15.8810 C.ar    1  UNL1        0.0376
      7 C          64.1282   89.4742   15.0047 C.2     1  UNL1        0.2461
      8 O          63.1702   90.2970   15.8140 O.2     1  UNL1       -0.2701
      9 N          65.3166   90.1244   14.3603 N.am    1  UNL1       -0.2969
     10 H          65.9454   89.5844   13.8291 H       1  UNL1        0.1501
     11 C          65.5468   91.5974   14.5254 C.3     1  UNL1        0.1181
     12 C          65.6775   92.4761   13.3168 C.ar    1  UNL1        0.0166
     13 C          65.0925   92.0405   12.0060 C.ar    1  UNL1        0.0005
     14 C          65.2232   92.9193   10.7974 C.ar    1  UNL1        0.0204
     15 C          65.9388   94.2336   10.8995 C.ar    1  UNL1        0.0989
     16 N          66.5238   94.6692   12.2103 N.ar    1  UNL1       -0.2426
     17 C          66.3931   93.7905   13.4189 C.ar    1  UNL1        0.0962
     18 O          63.2073   83.5822   14.3445 O.3     1  UNL1       -0.4528
     19 C          62.5634   81.7592   12.6090 C.ar    1  UNL1        0.1029
     20 C          62.7586   81.1152   11.2685 C.ar    1  UNL1        0.0134
     21 C          63.7928   81.6501   10.3228 C.ar    1  UNL1        0.0009
     22 C          64.6318   82.8291   10.7178 C.ar    1  UNL1        0.0032
     23 C          64.4367   83.4731   12.0583 C.ar    1  UNL1        0.0382
     24 C          63.4024   82.9381   13.0039 C.ar    1  UNL1        0.1548
     25 N          60.4950   80.6892   14.5002 N.1     1  UNL1       -0.1907
     26 C          61.5292   81.2242   13.5546 C.1     1  UNL1        0.1035
@<TRIPOS>BOND
     1    25    26    3
     2    26    19    1
     3    19    20   ar
     4    20    21   ar
     5    21    22   ar
     6    22    23   ar
     7    23    24   ar
     8    24    18    1
     9    18     1    1
    10     1     2   ar
    11     2     3   ar
    12     3     4   ar
    13     4     7    1
    14     7     8    2
    15     7     9   am
    16     9    11    1
    17    11    12    1
    18    12    13   ar
    19    13    14   ar
    20    14    15   ar
    21    15    16   ar
    22    16    17   ar
    23     4     5   ar
    24     5     6   ar
    25    24    19   ar
    26     6     1   ar
    27    17    12   ar
    28     9    10    1
